# DIS package for  MODFLOW-NWT, generated by Flopy.
         3       134       237       252         4         1
  0  0  0
CONSTANT    4.921260E+02                           #delr                          
CONSTANT    4.921260E+02                           #delc                          
INTERNAL               1 (237E15.6) -1 #model_top                     
   1.003075E+03   1.007671E+03   1.009066E+03   1.014453E+03   1.019427E+03   1.023903E+03   1.027687E+03   1.031376E+03   1.034655E+03   1.037926E+03   1.042201E+03   1.045363E+03   1.048928E+03   1.054241E+03   1.058435E+03   1.061899E+03   1.064069E+03   1.066016E+03   1.066314E+03   1.066559E+03   1.068103E+03   1.071189E+03   1.074050E+03   1.077644E+03   1.080067E+03   1.082655E+03   1.084902E+03   1.087733E+03   1.091000E+03   1.095134E+03   1.107968E+03   1.123843E+03   1.128843E+03   1.139115E+03   1.146151E+03   1.149774E+03   1.155476E+03   1.162594E+03   1.168522E+03   1.173853E+03   1.180161E+03   1.186651E+03   1.192884E+03   1.200439E+03   1.207233E+03   1.213118E+03   1.219237E+03   1.226655E+03   1.233982E+03   1.241958E+03   1.249105E+03   1.255783E+03   1.262942E+03   1.270164E+03   1.277242E+03   1.284698E+03   1.292093E+03   1.299136E+03   1.305609E+03   1.308968E+03   1.303733E+03   1.300185E+03   1.298452E+03   1.302372E+03   1.307557E+03   1.311468E+03   1.318846E+03   1.326609E+03   1.334555E+03   1.341019E+03   1.348936E+03   1.359849E+03   1.364895E+03   1.377532E+03   1.385531E+03   1.398211E+03   1.406690E+03   1.418471E+03   1.427646E+03   1.438072E+03   1.446080E+03   1.457092E+03   1.468276E+03   1.478352E+03   1.487914E+03   1.498974E+03   1.518301E+03   1.533248E+03   1.548589E+03   1.564578E+03   1.579237E+03   1.590382E+03   1.600611E+03   1.609810E+03   1.627682E+03   1.643973E+03   1.658211E+03   1.672421E+03   1.689082E+03   1.700791E+03   1.717353E+03   1.732410E+03   1.748705E+03   1.765032E+03   1.778423E+03   1.795620E+03   1.817188E+03   1.841349E+03   1.866532E+03   1.892257E+03   1.916954E+03   1.933352E+03   1.952996E+03   1.983803E+03   2.020263E+03   2.048802E+03   2.081556E+03   2.117142E+03   2.149901E+03   2.179761E+03   2.213618E+03   2.262840E+03   2.303054E+03   2.339906E+03   2.371915E+03   2.412135E+03   2.437920E+03   2.473726E+03   2.514020E+03   2.533373E+03   2.571452E+03   2.610916E+03   2.684258E+03   2.724232E+03   2.689185E+03   2.699796E+03   2.754497E+03   2.755500E+03   2.791586E+03   2.769268E+03   2.759928E+03   2.764096E+03   2.750673E+03   2.732308E+03   2.738381E+03   2.755789E+03   2.781049E+03   2.807239E+03   2.834433E+03   2.873998E+03   2.938057E+03   3.035971E+03   3.264460E+03   3.381947E+03   3.522626E+03   3.698195E+03   3.763390E+03   3.903060E+03   4.010835E+03   3.993121E+03   4.027889E+03   4.223265E+03   4.360645E+03   4.445495E+03   4.540472E+03   4.592588E+03   4.702754E+03   4.617947E+03   4.428784E+03   4.459375E+03   4.438426E+03   4.558142E+03   4.704892E+03   4.759345E+03   4.819326E+03   4.949471E+03   5.047065E+03   5.083351E+03   5.195550E+03   5.254546E+03   5.180768E+03   5.186757E+03   5.004533E+03   4.878510E+03   4.878611E+03   5.028179E+03   5.086792E+03   4.900198E+03   5.002199E+03   5.206571E+03   5.363533E+03   5.259809E+03   5.110946E+03   4.958835E+03   4.892394E+03   4.987933E+03   5.229107E+03   5.282078E+03   5.337667E+03   5.500173E+03   5.538759E+03   5.450230E+03   5.414056E+03   5.647748E+03   5.819799E+03   5.898555E+03   5.903423E+03   5.814029E+03   5.568372E+03   5.284175E+03   5.227117E+03   5.151050E+03   5.200026E+03   5.220730E+03   5.152285E+03   5.177519E+03   5.215133E+03   5.229085E+03   5.225129E+03   5.219398E+03   5.238793E+03   5.259335E+03   5.293272E+03   5.348539E+03   5.395755E+03   5.448798E+03   5.491282E+03   5.510729E+03   5.517025E+03   5.536898E+03   5.571015E+03   5.612079E+03   5.658540E+03   5.719263E+03   5.776353E+03   5.887533E+03   6.039859E+03
   1.003223E+03   1.007476E+03   1.010816E+03   1.014875E+03   1.019503E+03   1.023286E+03   1.025965E+03   1.029407E+03   1.033177E+03   1.036861E+03   1.039794E+03   1.043021E+03   1.046405E+03   1.051288E+03   1.055784E+03   1.059074E+03   1.061355E+03   1.061839E+03   1.058388E+03   1.062661E+03   1.066155E+03   1.069400E+03   1.072369E+03   1.075584E+03   1.078082E+03   1.079929E+03   1.082562E+03   1.086748E+03   1.090784E+03   1.100692E+03   1.122921E+03   1.128563E+03   1.134023E+03   1.141160E+03   1.147194E+03   1.152420E+03   1.158298E+03   1.164431E+03   1.170041E+03   1.175713E+03   1.181687E+03   1.188081E+03   1.194578E+03   1.201427E+03   1.208428E+03   1.215402E+03   1.222392E+03   1.228921E+03   1.235842E+03   1.242812E+03   1.250806E+03   1.258479E+03   1.264400E+03   1.272707E+03   1.280181E+03   1.287670E+03   1.295465E+03   1.303131E+03   1.309902E+03   1.315873E+03   1.322537E+03   1.328359E+03   1.327775E+03   1.330607E+03   1.328852E+03   1.320352E+03   1.331547E+03   1.334584E+03   1.341806E+03   1.341135E+03   1.350393E+03   1.359781E+03   1.365693E+03   1.378997E+03   1.387622E+03   1.397727E+03   1.406722E+03   1.417026E+03   1.424906E+03   1.439447E+03   1.451941E+03   1.465304E+03   1.483966E+03   1.493931E+03   1.505370E+03   1.513678E+03   1.531302E+03   1.545248E+03   1.555793E+03   1.566844E+03   1.580585E+03   1.594594E+03   1.608308E+03   1.618925E+03   1.631950E+03   1.649747E+03   1.664358E+03   1.680235E+03   1.695089E+03   1.712508E+03   1.725705E+03   1.740945E+03   1.758288E+03   1.772489E+03   1.790507E+03   1.801580E+03   1.818880E+03   1.847097E+03   1.870356E+03   1.896213E+03   1.924119E+03   1.949612E+03   1.977437E+03   2.004977E+03   2.030360E+03   2.059800E+03   2.088745E+03   2.116853E+03   2.132313E+03   2.168396E+03   2.208006E+03   2.253614E+03   2.300487E+03   2.344112E+03   2.364369E+03   2.376846E+03   2.401860E+03   2.438119E+03   2.468363E+03   2.509150E+03   2.542542E+03   2.552821E+03   2.566415E+03   2.597308E+03   2.606702E+03   2.653816E+03   2.691779E+03   2.701666E+03   2.724816E+03   2.717741E+03   2.708667E+03   2.684747E+03   2.684792E+03   2.698192E+03   2.720744E+03   2.750643E+03   2.778901E+03   2.805692E+03   2.831088E+03   2.859910E+03   2.961067E+03   3.115944E+03   3.140329E+03   3.222353E+03   3.339120E+03   3.434687E+03   3.575061E+03   3.742444E+03   3.810453E+03   3.854715E+03   4.068311E+03   4.255573E+03   4.220830E+03   4.265666E+03   4.353323E+03   4.486359E+03   4.612273E+03   4.592801E+03   4.307737E+03   4.260461E+03   4.232952E+03   4.394827E+03   4.441628E+03   4.437109E+03   4.571901E+03   4.753415E+03   4.846923E+03   4.964031E+03   5.043973E+03   5.132232E+03   5.140827E+03   5.204473E+03   5.256537E+03   5.151012E+03   5.144905E+03   5.187317E+03   5.166897E+03   5.014905E+03   5.056739E+03   5.226379E+03   5.417444E+03   5.474290E+03   5.257069E+03   5.154992E+03   5.033596E+03   5.308015E+03   5.550091E+03   5.606612E+03   5.600883E+03   5.845899E+03   5.899781E+03   5.775506E+03   5.739046E+03   5.837077E+03   6.145059E+03   6.229740E+03   6.168777E+03   5.845494E+03   5.670018E+03   5.665603E+03   5.640100E+03   5.403179E+03   5.546595E+03   5.578329E+03   5.415024E+03   5.304107E+03   5.308023E+03   5.303115E+03   5.335918E+03   5.343291E+03   5.304703E+03   5.328593E+03   5.356118E+03   5.390238E+03   5.438915E+03   5.488641E+03   5.540203E+03   5.574315E+03   5.584192E+03   5.590854E+03   5.599084E+03   5.629167E+03   5.662436E+03   5.691099E+03   5.728123E+03   5.775469E+03   5.884496E+03
   1.002845E+03   1.006935E+03   1.010622E+03   1.014455E+03   1.018611E+03   1.021860E+03   1.024750E+03   1.027875E+03   1.031418E+03   1.035070E+03   1.038351E+03   1.041956E+03   1.045588E+03   1.049947E+03   1.054281E+03   1.056075E+03   1.056744E+03   1.054461E+03   1.057167E+03   1.062130E+03   1.064866E+03   1.068185E+03   1.070532E+03   1.073364E+03   1.076602E+03   1.079565E+03   1.090587E+03   1.102396E+03   1.102963E+03   1.116373E+03   1.126089E+03   1.130715E+03   1.135961E+03   1.141687E+03   1.147702E+03   1.153637E+03   1.159798E+03   1.165701E+03   1.171320E+03   1.177168E+03   1.183106E+03   1.189279E+03   1.195567E+03   1.201916E+03   1.209214E+03   1.217055E+03   1.224497E+03   1.231849E+03   1.238837E+03   1.245277E+03   1.253254E+03   1.260905E+03   1.268299E+03   1.276373E+03   1.284082E+03   1.291438E+03   1.299034E+03   1.306364E+03   1.314095E+03   1.320714E+03   1.327073E+03   1.334089E+03   1.341453E+03   1.347274E+03   1.353651E+03   1.358406E+03   1.355907E+03   1.361697E+03   1.373114E+03   1.370377E+03   1.373333E+03   1.383319E+03   1.392089E+03   1.387825E+03   1.386123E+03   1.399790E+03   1.415077E+03   1.432795E+03   1.448418E+03   1.461863E+03   1.469308E+03   1.480354E+03   1.490905E+03   1.502384E+03   1.511659E+03   1.522297E+03   1.536558E+03   1.548930E+03   1.559976E+03   1.573062E+03   1.585994E+03   1.599210E+03   1.611147E+03   1.625140E+03   1.640553E+03   1.655800E+03   1.669506E+03   1.685669E+03   1.703386E+03   1.719854E+03   1.735240E+03   1.752559E+03   1.767415E+03   1.783345E+03   1.798237E+03   1.812884E+03   1.828411E+03   1.845446E+03   1.873238E+03   1.898059E+03   1.921444E+03   1.946266E+03   1.970043E+03   1.998958E+03   2.025910E+03   2.050728E+03   2.080375E+03   2.106963E+03   2.132448E+03   2.165327E+03   2.199739E+03   2.238113E+03   2.278199E+03   2.303726E+03   2.324467E+03   2.361789E+03   2.386152E+03   2.419928E+03   2.443887E+03   2.462609E+03   2.489754E+03   2.508272E+03   2.527397E+03   2.542396E+03   2.578935E+03   2.599872E+03   2.609812E+03   2.623735E+03   2.633023E+03   2.633009E+03   2.630617E+03   2.642779E+03   2.662988E+03   2.688601E+03   2.716628E+03   2.742203E+03   2.764056E+03   2.788987E+03   2.811579E+03   2.859128E+03   3.041318E+03   3.183095E+03   3.259466E+03   3.376739E+03   3.446233E+03   3.496052E+03   3.593952E+03   3.672550E+03   3.791893E+03   3.926314E+03   4.058873E+03   4.094198E+03   4.019599E+03   4.028067E+03   4.202480E+03   4.409182E+03   4.544894E+03   4.542724E+03   4.327152E+03   4.046141E+03   4.124340E+03   4.143717E+03   4.132334E+03   4.233434E+03   4.399366E+03   4.600859E+03   4.816651E+03   4.971219E+03   5.097359E+03   5.090940E+03   5.196153E+03   5.326804E+03   5.340828E+03   5.346414E+03   5.328008E+03   5.245341E+03   5.166052E+03   5.080462E+03   5.165896E+03   5.336158E+03   5.481604E+03   5.646423E+03   5.483900E+03   5.345535E+03   5.178378E+03   5.424993E+03   5.777941E+03   5.941846E+03   5.977651E+03   6.117695E+03   6.250591E+03   6.159906E+03   6.199063E+03   6.083920E+03   6.349041E+03   6.548011E+03   6.405322E+03   6.182667E+03   6.140801E+03   6.022088E+03   6.021212E+03   5.755263E+03   5.700661E+03   5.920368E+03   5.785451E+03   5.599966E+03   5.445316E+03   5.413349E+03   5.393566E+03   5.485573E+03   5.438442E+03   5.490372E+03   5.621606E+03   5.527805E+03   5.504682E+03   5.562207E+03   5.594703E+03   5.636087E+03   5.650992E+03   5.663680E+03   5.662092E+03   5.697420E+03   5.724074E+03   5.743823E+03   5.753115E+03   5.780474E+03   5.822960E+03
   1.002565E+03   1.006545E+03   1.010404E+03   1.014047E+03   1.017664E+03   1.020680E+03   1.023547E+03   1.027322E+03   1.031680E+03   1.035871E+03   1.039701E+03   1.043362E+03   1.046630E+03   1.047631E+03   1.047733E+03   1.053606E+03   1.055115E+03   1.053766E+03   1.055198E+03   1.058820E+03   1.062177E+03   1.065357E+03   1.068663E+03   1.074002E+03   1.082061E+03   1.095654E+03   1.105105E+03   1.108807E+03   1.113664E+03   1.121388E+03   1.127101E+03   1.131937E+03   1.137234E+03   1.142795E+03   1.148456E+03   1.154371E+03   1.160677E+03   1.166560E+03   1.172355E+03   1.178445E+03   1.184551E+03   1.190569E+03   1.196641E+03   1.202733E+03   1.210220E+03   1.218231E+03   1.226016E+03   1.234368E+03   1.242574E+03   1.249136E+03   1.256549E+03   1.264042E+03   1.271642E+03   1.279917E+03   1.287473E+03   1.295229E+03   1.302946E+03   1.310442E+03   1.318345E+03   1.325541E+03   1.331952E+03   1.338437E+03   1.345284E+03   1.352125E+03   1.358846E+03   1.366742E+03   1.373840E+03   1.382079E+03   1.387329E+03   1.392258E+03   1.397595E+03   1.406668E+03   1.412398E+03   1.418409E+03   1.422601E+03   1.428238E+03   1.441327E+03   1.450337E+03   1.461370E+03   1.469891E+03   1.477379E+03   1.484096E+03   1.495282E+03   1.506426E+03   1.516940E+03   1.528148E+03   1.540790E+03   1.553402E+03   1.565295E+03   1.578381E+03   1.591375E+03   1.604384E+03   1.614769E+03   1.630952E+03   1.647295E+03   1.661210E+03   1.676173E+03   1.693106E+03   1.710345E+03   1.727016E+03   1.743201E+03   1.761765E+03   1.775578E+03   1.794004E+03   1.808786E+03   1.826125E+03   1.842684E+03   1.848608E+03   1.872455E+03   1.894155E+03   1.925058E+03   1.947751E+03   1.971696E+03   1.999581E+03   2.028533E+03   2.054892E+03   2.079884E+03   2.105895E+03   2.131314E+03   2.158822E+03   2.190210E+03   2.218389E+03   2.249822E+03   2.283007E+03   2.317799E+03   2.349688E+03   2.378267E+03   2.398964E+03   2.412941E+03   2.428775E+03   2.447946E+03   2.476210E+03   2.488695E+03   2.519375E+03   2.543242E+03   2.548123E+03   2.561673E+03   2.566036E+03   2.574282E+03   2.589458E+03   2.608894E+03   2.627878E+03   2.653476E+03   2.684285E+03   2.707578E+03   2.731042E+03   2.749502E+03   2.768344E+03   2.790704E+03   2.893469E+03   3.051897E+03   3.181132E+03   3.257613E+03   3.324657E+03   3.399405E+03   3.449699E+03   3.521792E+03   3.599306E+03   3.710242E+03   3.809380E+03   3.824271E+03   3.800981E+03   3.786135E+03   3.962979E+03   4.166573E+03   4.330600E+03   4.408460E+03   4.379715E+03   4.149610E+03   3.914856E+03   3.952042E+03   4.027472E+03   4.184539E+03   4.266385E+03   4.389449E+03   4.559904E+03   4.758269E+03   4.913521E+03   5.076651E+03   5.210649E+03   5.208828E+03   5.313165E+03   5.483580E+03   5.471004E+03   5.331404E+03   5.164048E+03   5.172602E+03   5.177109E+03   5.211886E+03   5.395346E+03   5.524592E+03   5.761645E+03   5.698349E+03   5.531181E+03   5.424583E+03   5.411916E+03   5.686328E+03   5.963925E+03   6.206790E+03   6.428825E+03   6.566800E+03   6.553302E+03   6.576441E+03   6.480330E+03   6.584446E+03   6.794972E+03   6.684694E+03   6.601627E+03   6.494046E+03   6.406307E+03   6.336044E+03   6.131274E+03   5.949999E+03   6.083807E+03   6.109070E+03   5.875890E+03   5.639456E+03   5.603369E+03   5.615362E+03   5.630370E+03   5.715293E+03   5.619377E+03   5.842033E+03   5.732760E+03   5.738679E+03   5.858696E+03   5.757566E+03   5.724171E+03   5.723346E+03   5.735661E+03   5.739708E+03   5.787702E+03   5.859130E+03   5.807543E+03   5.801357E+03   5.806846E+03   5.849789E+03
   1.004160E+03   1.007370E+03   1.011059E+03   1.014247E+03   1.017401E+03   1.020044E+03   1.022786E+03   1.027637E+03   1.032791E+03   1.037406E+03   1.039799E+03   1.043475E+03   1.043109E+03   1.038911E+03   1.041269E+03   1.047521E+03   1.052344E+03   1.057919E+03   1.056444E+03   1.058699E+03   1.061610E+03   1.069017E+03   1.081769E+03   1.086685E+03   1.093742E+03   1.102250E+03   1.107376E+03   1.111468E+03   1.116631E+03   1.122359E+03   1.127642E+03   1.132700E+03   1.137926E+03   1.143537E+03   1.149130E+03   1.154886E+03   1.160701E+03   1.166790E+03   1.173079E+03   1.179490E+03   1.185690E+03   1.191725E+03   1.197926E+03   1.204382E+03   1.211390E+03   1.219059E+03   1.226792E+03   1.235612E+03   1.244257E+03   1.251078E+03   1.259073E+03   1.266655E+03   1.274073E+03   1.282080E+03   1.289773E+03   1.298018E+03   1.306094E+03   1.313874E+03   1.321903E+03   1.329199E+03   1.336604E+03   1.343262E+03   1.349529E+03   1.356151E+03   1.362777E+03   1.370239E+03   1.378347E+03   1.386054E+03   1.392815E+03   1.399354E+03   1.404706E+03   1.411462E+03   1.418706E+03   1.426108E+03   1.433443E+03   1.440802E+03   1.446683E+03   1.456535E+03   1.465736E+03   1.474061E+03   1.482654E+03   1.491358E+03   1.500513E+03   1.508628E+03   1.521225E+03   1.533069E+03   1.545891E+03   1.558517E+03   1.570990E+03   1.583442E+03   1.595048E+03   1.606149E+03   1.620394E+03   1.636802E+03   1.652932E+03   1.668603E+03   1.681053E+03   1.698219E+03   1.714964E+03   1.731087E+03   1.747792E+03   1.762807E+03   1.780205E+03   1.796653E+03   1.814749E+03   1.834230E+03   1.853591E+03   1.865057E+03   1.879038E+03   1.894600E+03   1.920830E+03   1.947229E+03   1.976682E+03   2.002341E+03   2.026755E+03   2.052939E+03   2.081607E+03   2.105679E+03   2.130948E+03   2.160238E+03   2.189249E+03   2.214167E+03   2.243350E+03   2.279218E+03   2.310394E+03   2.337231E+03   2.358484E+03   2.374417E+03   2.383812E+03   2.404377E+03   2.423081E+03   2.440242E+03   2.466896E+03   2.486745E+03   2.494443E+03   2.505222E+03   2.522336E+03   2.535376E+03   2.552118E+03   2.571889E+03   2.593937E+03   2.615314E+03   2.641629E+03   2.669249E+03   2.693294E+03   2.713517E+03   2.727594E+03   2.755679E+03   2.828470E+03   2.881653E+03   2.958125E+03   3.071792E+03   3.193079E+03   3.274172E+03   3.304256E+03   3.350060E+03   3.384735E+03   3.470728E+03   3.593405E+03   3.677163E+03   3.645494E+03   3.604961E+03   3.822065E+03   4.047170E+03   4.108546E+03   4.199882E+03   4.218366E+03   4.183212E+03   4.077918E+03   3.796454E+03   3.844723E+03   4.098563E+03   4.275661E+03   4.437845E+03   4.502531E+03   4.578312E+03   4.737980E+03   4.928297E+03   5.095277E+03   5.242391E+03   5.365051E+03   5.351892E+03   5.546815E+03   5.666570E+03   5.370630E+03   5.091985E+03   4.978331E+03   5.068055E+03   5.260245E+03   5.440577E+03   5.583163E+03   5.814031E+03   5.928204E+03   5.776861E+03   5.626684E+03   5.529587E+03   5.554250E+03   5.812847E+03   6.100952E+03   6.379340E+03   6.531705E+03   6.656787E+03   6.791526E+03   6.858886E+03   6.827930E+03   6.989088E+03   6.995975E+03   6.929036E+03   6.716447E+03   6.730166E+03   6.600772E+03   6.563596E+03   6.318904E+03   6.279051E+03   6.398590E+03   6.142279E+03   5.817857E+03   5.934608E+03   6.023707E+03   5.950394E+03   5.926275E+03   5.865281E+03   6.099273E+03   6.042877E+03   6.085241E+03   6.143515E+03   6.000198E+03   5.854678E+03   5.813725E+03   5.836355E+03   5.956419E+03   6.040438E+03   5.973739E+03   5.881618E+03   5.929635E+03   5.921016E+03   5.920318E+03
   1.005713E+03   1.009245E+03   1.012576E+03   1.014553E+03   1.017322E+03   1.019589E+03   1.022200E+03   1.026205E+03   1.032085E+03   1.036066E+03   1.033693E+03   1.035531E+03   1.034056E+03   1.037277E+03   1.041861E+03   1.045653E+03   1.053933E+03   1.064389E+03   1.064213E+03   1.062741E+03   1.073124E+03   1.081972E+03   1.087261E+03   1.091857E+03   1.099068E+03   1.104721E+03   1.108658E+03   1.112863E+03   1.117448E+03   1.122346E+03   1.127982E+03   1.133393E+03   1.138336E+03   1.143535E+03   1.149587E+03   1.155380E+03   1.160969E+03   1.167169E+03   1.173674E+03   1.180147E+03   1.186473E+03   1.192771E+03   1.199089E+03   1.205546E+03   1.212245E+03   1.219141E+03   1.226719E+03   1.235203E+03   1.243391E+03   1.251309E+03   1.259601E+03   1.267391E+03   1.275571E+03   1.283816E+03   1.291218E+03   1.298981E+03   1.307245E+03   1.316586E+03   1.324815E+03   1.331961E+03   1.340374E+03   1.346969E+03   1.353449E+03   1.360404E+03   1.366816E+03   1.373859E+03   1.381258E+03   1.388835E+03   1.396686E+03   1.403986E+03   1.410860E+03   1.418221E+03   1.424655E+03   1.432026E+03   1.439694E+03   1.446896E+03   1.453581E+03   1.460543E+03   1.467232E+03   1.478066E+03   1.487150E+03   1.496628E+03   1.505896E+03   1.514450E+03   1.522247E+03   1.537396E+03   1.550402E+03   1.563133E+03   1.576325E+03   1.588924E+03   1.600671E+03   1.613167E+03   1.628191E+03   1.642978E+03   1.658005E+03   1.673324E+03   1.689251E+03   1.703257E+03   1.719548E+03   1.736643E+03   1.753089E+03   1.768221E+03   1.784999E+03   1.802334E+03   1.821405E+03   1.841679E+03   1.867496E+03   1.879469E+03   1.890179E+03   1.905512E+03   1.920720E+03   1.943029E+03   1.962935E+03   1.997598E+03   2.023009E+03   2.054653E+03   2.082991E+03   2.106878E+03   2.142689E+03   2.190622E+03   2.189105E+03   2.204646E+03   2.234268E+03   2.267752E+03   2.296526E+03   2.317926E+03   2.331975E+03   2.341212E+03   2.345408E+03   2.356825E+03   2.385324E+03   2.411026E+03   2.431446E+03   2.445256E+03   2.465799E+03   2.480564E+03   2.498081E+03   2.515305E+03   2.536466E+03   2.560203E+03   2.582527E+03   2.605980E+03   2.630928E+03   2.652620E+03   2.672190E+03   2.689035E+03   2.714268E+03   2.765801E+03   2.793370E+03   2.841891E+03   2.902301E+03   3.007673E+03   3.140760E+03   3.171212E+03   3.225885E+03   3.232034E+03   3.263156E+03   3.343558E+03   3.458192E+03   3.524623E+03   3.461026E+03   3.625807E+03   3.806217E+03   3.902303E+03   3.960256E+03   4.036337E+03   4.021471E+03   3.920857E+03   3.819291E+03   3.706796E+03   3.963552E+03   4.251635E+03   4.417589E+03   4.526044E+03   4.635058E+03   4.756083E+03   4.900321E+03   5.040984E+03   5.136214E+03   5.265572E+03   5.376434E+03   5.427389E+03   5.577798E+03   5.713093E+03   5.443060E+03   5.154439E+03   4.944970E+03   4.886342E+03   5.128393E+03   5.375303E+03   5.596655E+03   5.686117E+03   5.933969E+03   5.993007E+03   5.865319E+03   5.752429E+03   5.669903E+03   5.737462E+03   5.923528E+03   6.156594E+03   6.299853E+03   6.496257E+03   6.777960E+03   7.011226E+03   7.165480E+03   7.286507E+03   7.264819E+03   7.117345E+03   7.005895E+03   7.029673E+03   6.892054E+03   6.834406E+03   6.504772E+03   6.446269E+03   6.570229E+03   6.289958E+03   6.038907E+03   6.207162E+03   6.335622E+03   6.255779E+03   6.159242E+03   6.150221E+03   6.180940E+03   6.373486E+03   6.428546E+03   6.417851E+03   6.179831E+03   6.010792E+03   6.017200E+03   6.012744E+03   6.264883E+03   6.317820E+03   6.062872E+03   5.981920E+03   6.220854E+03   6.207857E+03   6.111683E+03
   1.005536E+03   1.008453E+03   1.011691E+03   1.013667E+03   1.015524E+03   1.018240E+03   1.021667E+03   1.025554E+03   1.029231E+03   1.029565E+03   1.027872E+03   1.030040E+03   1.033932E+03   1.037909E+03   1.041889E+03   1.048461E+03   1.059042E+03   1.065116E+03   1.068185E+03   1.068097E+03   1.073033E+03   1.082477E+03   1.088942E+03   1.093921E+03   1.100109E+03   1.105097E+03   1.109307E+03   1.113672E+03   1.118451E+03   1.123105E+03   1.128535E+03   1.134362E+03   1.139892E+03   1.144755E+03   1.150472E+03   1.156093E+03   1.161594E+03   1.167847E+03   1.174357E+03   1.180724E+03   1.187132E+03   1.193729E+03   1.200518E+03   1.206835E+03   1.213078E+03   1.219400E+03   1.226737E+03   1.234822E+03   1.242627E+03   1.250868E+03   1.259062E+03   1.267065E+03   1.275495E+03   1.283958E+03   1.291859E+03   1.299596E+03   1.308047E+03   1.317348E+03   1.325658E+03   1.333395E+03   1.341670E+03   1.348871E+03   1.356147E+03   1.363641E+03   1.370151E+03   1.376975E+03   1.384127E+03   1.391523E+03   1.399439E+03   1.407237E+03   1.415122E+03   1.423186E+03   1.430028E+03   1.437833E+03   1.445545E+03   1.453247E+03   1.459987E+03   1.466313E+03   1.474159E+03   1.481860E+03   1.489519E+03   1.501726E+03   1.510972E+03   1.519793E+03   1.529219E+03   1.540326E+03   1.552194E+03   1.566617E+03   1.579303E+03   1.592161E+03   1.605324E+03   1.619512E+03   1.633422E+03   1.646699E+03   1.660859E+03   1.677078E+03   1.693019E+03   1.709342E+03   1.725253E+03   1.742670E+03   1.759430E+03   1.774151E+03   1.790847E+03   1.807374E+03   1.826705E+03   1.846194E+03   1.864772E+03   1.882848E+03   1.899292E+03   1.917743E+03   1.929275E+03   1.949064E+03   1.967213E+03   1.989609E+03   2.012739E+03   2.051171E+03   2.078248E+03   2.101116E+03   2.128397E+03   2.199331E+03   2.243060E+03   2.230243E+03   2.238529E+03   2.256006E+03   2.277203E+03   2.292147E+03   2.291461E+03   2.303281E+03   2.318644E+03   2.343976E+03   2.369571E+03   2.391287E+03   2.412799E+03   2.433477E+03   2.451934E+03   2.465153E+03   2.478990E+03   2.499604E+03   2.522492E+03   2.546781E+03   2.566007E+03   2.595625E+03   2.615055E+03   2.634071E+03   2.651757E+03   2.671703E+03   2.696836E+03   2.724421E+03   2.751427E+03   2.791746E+03   2.856425E+03   2.937003E+03   2.983657E+03   3.071414E+03   3.107066E+03   3.138827E+03   3.178447E+03   3.243087E+03   3.322673E+03   3.346334E+03   3.414965E+03   3.522625E+03   3.645671E+03   3.668050E+03   3.780875E+03   3.863463E+03   3.792512E+03   3.635506E+03   3.611024E+03   3.770586E+03   4.032854E+03   4.289590E+03   4.333438E+03   4.338669E+03   4.593092E+03   4.847274E+03   4.946360E+03   5.017719E+03   5.170615E+03   5.332453E+03   5.389637E+03   5.421002E+03   5.534097E+03   5.639942E+03   5.423310E+03   5.142466E+03   4.961716E+03   4.806250E+03   4.936902E+03   5.166261E+03   5.370882E+03   5.464463E+03   5.813514E+03   6.072527E+03   6.113714E+03   5.997780E+03   5.957012E+03   6.054726E+03   6.170801E+03   6.217614E+03   6.304396E+03   6.423312E+03   6.618538E+03   6.871459E+03   7.169348E+03   7.454699E+03   7.504157E+03   7.345824E+03   7.332253E+03   7.248678E+03   7.201848E+03   7.016454E+03   6.659876E+03   6.636038E+03   6.697690E+03   6.451442E+03   6.427004E+03   6.482285E+03   6.698065E+03   6.578124E+03   6.381647E+03   6.392976E+03   6.311605E+03   6.340667E+03   6.539852E+03   6.638725E+03   6.443967E+03   6.325160E+03   6.194511E+03   6.125362E+03   6.480811E+03   6.420358E+03   6.094517E+03   6.038457E+03   6.337063E+03   6.502841E+03   6.339454E+03
   1.004213E+03   1.006838E+03   1.009660E+03   1.011568E+03   1.014270E+03   1.017907E+03   1.021225E+03   1.024465E+03   1.024384E+03   1.022640E+03   1.025913E+03   1.030179E+03   1.035053E+03   1.040706E+03   1.050456E+03   1.055929E+03   1.060614E+03   1.065135E+03   1.069926E+03   1.073004E+03   1.076940E+03   1.084193E+03   1.089548E+03   1.094242E+03   1.099464E+03   1.104634E+03   1.109507E+03   1.114024E+03   1.119137E+03   1.124261E+03   1.129036E+03   1.134952E+03   1.141304E+03   1.146393E+03   1.151489E+03   1.157071E+03   1.162814E+03   1.168798E+03   1.175092E+03   1.181391E+03   1.187739E+03   1.194373E+03   1.201338E+03   1.207604E+03   1.213771E+03   1.220552E+03   1.227419E+03   1.235200E+03   1.242922E+03   1.250803E+03   1.258329E+03   1.266311E+03   1.274826E+03   1.282674E+03   1.292112E+03   1.301512E+03   1.309793E+03   1.317762E+03   1.325876E+03   1.334395E+03   1.341822E+03   1.350308E+03   1.358387E+03   1.365431E+03   1.372874E+03   1.379879E+03   1.386956E+03   1.394025E+03   1.401411E+03   1.409353E+03   1.417929E+03   1.425817E+03   1.433190E+03   1.441714E+03   1.449587E+03   1.458732E+03   1.466544E+03   1.473254E+03   1.480927E+03   1.487575E+03   1.495786E+03   1.504770E+03   1.515995E+03   1.525762E+03   1.535886E+03   1.546485E+03   1.557958E+03   1.569759E+03   1.581515E+03   1.594098E+03   1.607212E+03   1.622060E+03   1.636451E+03   1.650677E+03   1.665546E+03   1.682418E+03   1.696712E+03   1.711827E+03   1.728618E+03   1.747385E+03   1.764732E+03   1.780332E+03   1.796723E+03   1.813330E+03   1.831319E+03   1.849524E+03   1.870032E+03   1.887192E+03   1.904500E+03   1.921946E+03   1.941630E+03   1.957635E+03   1.974754E+03   1.995152E+03   2.023961E+03   2.048265E+03   2.074283E+03   2.091067E+03   2.109601E+03   2.132573E+03   2.149188E+03   2.195663E+03   2.203375E+03   2.218510E+03   2.248245E+03   2.254165E+03   2.266011E+03   2.284983E+03   2.308568E+03   2.330597E+03   2.355903E+03   2.376793E+03   2.398283E+03   2.420002E+03   2.437694E+03   2.447179E+03   2.467483E+03   2.485982E+03   2.510435E+03   2.533085E+03   2.554017E+03   2.577255E+03   2.595435E+03   2.614436E+03   2.641589E+03   2.666789E+03   2.687976E+03   2.717708E+03   2.744985E+03   2.776626E+03   2.830075E+03   2.921072E+03   2.989737E+03   3.028588E+03   3.066440E+03   3.102832E+03   3.148778E+03   3.205135E+03   3.233906E+03   3.286109E+03   3.301925E+03   3.405418E+03   3.487043E+03   3.549477E+03   3.648909E+03   3.612980E+03   3.518458E+03   3.513074E+03   3.728973E+03   3.916385E+03   4.103724E+03   4.207550E+03   4.072116E+03   4.132314E+03   4.371453E+03   4.683708E+03   4.697752E+03   4.675328E+03   4.842073E+03   5.185162E+03   5.348130E+03   5.487016E+03   5.609211E+03   5.652345E+03   5.437586E+03   5.092348E+03   4.880690E+03   4.765904E+03   4.795652E+03   4.948044E+03   5.152500E+03   5.434465E+03   5.747359E+03   6.011300E+03   6.099885E+03   6.138044E+03   6.223479E+03   6.324911E+03   6.504587E+03   6.581421E+03   6.588502E+03   6.678615E+03   6.713608E+03   6.860221E+03   7.153266E+03   7.465922E+03   7.669225E+03   7.621688E+03   7.614748E+03   7.489311E+03   7.381730E+03   7.100791E+03   6.844451E+03   6.838739E+03   6.959435E+03   6.774997E+03   6.817413E+03   6.789196E+03   6.936055E+03   6.668009E+03   6.707677E+03   6.697899E+03   6.548287E+03   6.434590E+03   6.501578E+03   6.518466E+03   6.633896E+03   6.596658E+03   6.303788E+03   6.239229E+03   6.572421E+03   6.437583E+03   6.288243E+03   6.159597E+03   6.227187E+03   6.576836E+03   6.614979E+03