# HFB6 package for  MODFLOW-NWT, generated by Flopy.
         0         0      2130
         1        69       188        68       188           10
         2        69       188        68       188           10
         3        69       188        68       188           10
         1        69       189        69       188           10
         2        69       189        69       188           10
         3        69       189        69       188           10
         1        70       189        69       189           10
         2        70       189        69       189           10
         3        70       189        69       189           10
         1        70       190        70       189           10
         2        70       190        70       189           10
         3        70       190        70       189           10
         1        71       190        70       190           10
         2        71       190        70       190           10
         3        71       190        70       190           10
         1        71       191        70       191           10
         2        71       191        70       191           10
         3        71       191        70       191           10
         1        71       192        71       191           10
         2        71       192        71       191           10
         3        71       192        71       191           10
         1        72       192        71       192           10
         2        72       192        71       192           10
         3        72       192        71       192           10
         1        72       193        71       193           10
         2        72       193        71       193           10
         3        72       193        71       193           10
         1        72       194        72       193           10
         2        72       194        72       193           10
         3        72       194        72       193           10
         1        73       194        72       194           10
         2        73       194        72       194           10
         3        73       194        72       194           10
         1        73       195        73       194           10
         2        73       195        73       194           10
         3        73       195        73       194           10
         1        74       195        73       195           10
         2        74       195        73       195           10
         3        74       195        73       195           10
         1        74       196        74       195           10
         2        74       196        74       195           10
         3        74       196        74       195           10
         1        75       196        74       196           10
         2        75       196        74       196           10
         3        75       196        74       196           10
         1        75       197        75       196           10
         2        75       197        75       196           10
         3        75       197        75       196           10
         1        76       197        75       197           10
         2        76       197        75       197           10
         3        76       197        75       197           10
         1        76       198        76       197           10
         2        76       198        76       197           10
         3        76       198        76       197           10
         1        77       198        77       197           10
         2        77       198        77       197           10
         3        77       198        77       197           10
         1        78       198        77       198           10
         2        78       198        77       198           10
         3        78       198        77       198           10
         1        78       199        78       198           10
         2        78       199        78       198           10
         3        78       199        78       198           10
         1        79       199        78       199           10
         2        79       199        78       199           10
         3        79       199        78       199           10
         1        79       200        79       199           10
         2        79       200        79       199           10
         3        79       200        79       199           10
         1        80       200        79       200           10
         2        80       200        79       200           10
         3        80       200        79       200           10
         1        80       201        80       200           10
         2        80       201        80       200           10
         3        80       201        80       200           10
         1        81       201        81       200           10
         2        81       201        81       200           10
         3        81       201        81       200           10
         1        82       201        81       201           10
         2        82       201        81       201           10
         3        82       201        81       201           10
         1        82       202        82       201           10
         2        82       202        82       201           10
         3        82       202        82       201           10
         1        83       202        82       202           10
         2        83       202        82       202           10
         3        83       202        82       202           10
         1        83       203        82       203           10
         2        83       203        82       203           10
         3        83       203        82       203           10
         1        83       204        83       203           10
         2        83       204        83       203           10
         3        83       204        83       203           10
         1        84       204        83       204           10
         2        84       204        83       204           10
         3        84       204        83       204           10
         1        84       205        83       205           10
         2        84       205        83       205           10
         3        84       205        83       205           10
         1        84       206        83       206           10
         2        84       206        83       206           10
         3        84       206        83       206           10
         1        84       207        84       206           10
         2        84       207        84       206           10
         3        84       207        84       206           10
         1        85       207        84       207           10
         2        85       207        84       207           10
         3        85       207        84       207           10
         1        85       208        84       208           10
         2        85       208        84       208           10
         3        85       208        84       208           10
         1        85       209        84       209           10
         2        85       209        84       209           10
         3        85       209        84       209           10
         1        85       210        85       209           10
         2        85       210        85       209           10
         3        85       210        85       209           10
         1        86       210        85       210           10
         2        86       210        85       210           10
         3        86       210        85       210           10
         1        53        97        52        97           10
         2        53        97        52        97           10
         3        53        97        52        97           10
         1        53        98        53        97           10
         2        53        98        53        97           10
         3        53        98        53        97           10
         1        54        98        53        98           10
         2        54        98        53        98           10
         3        54        98        53        98           10
         1        54        99        53        99           10
         2        54        99        53        99           10
         3        54        99        53        99           10
         1        54       100        53       100           10
         2        54       100        53       100           10
         3        54       100        53       100           10
         1        54       101        54       100           10
         2        54       101        54       100           10
         3        54       101        54       100           10
         1        55       101        54       101           10
         2        55       101        54       101           10
         3        55       101        54       101           10
         1        55       102        54       102           10
         2        55       102        54       102           10
         3        55       102        54       102           10
         1        55       103        55       102           10
         2        55       103        55       102           10
         3        55       103        55       102           10
         1        56       103        55       103           10
         2        56       103        55       103           10
         3        56       103        55       103           10
         1        56       104        55       104           10
         2        56       104        55       104           10
         3        56       104        55       104           10
         1        56       105        56       104           10
         2        56       105        56       104           10
         3        56       105        56       104           10
         1        57       105        56       105           10
         2        57       105        56       105           10
         3        57       105        56       105           10
         1        57       106        56       106           10
         2        57       106        56       106           10
         3        57       106        56       106           10
         1        57       107        56       107           10
         2        57       107        56       107           10
         3        57       107        56       107           10
         1        57       108        57       107           10
         2        57       108        57       107           10
         3        57       108        57       107           10
         1        58       108        57       108           10
         2        58       108        57       108           10
         3        58       108        57       108           10
         1        58       109        57       109           10
         2        58       109        57       109           10
         3        58       109        57       109           10
         1        58       110        58       109           10
         2        58       110        58       109           10
         3        58       110        58       109           10
         1        59       110        58       110           10
         2        59       110        58       110           10
         3        59       110        58       110           10
         1        59       111        58       111           10
         2        59       111        58       111           10
         3        59       111        58       111           10
         1        59       112        58       112           10
         2        59       112        58       112           10
         3        59       112        58       112           10
         1        59       113        59       112           10
         2        59       113        59       112           10
         3        59       113        59       112           10
         1        60       113        59       113           10
         2        60       113        59       113           10
         3        60       113        59       113           10
         1        60       114        59       114           10
         2        60       114        59       114           10
         3        60       114        59       114           10
         1        60       115        59       115           10
         2        60       115        59       115           10
         3        60       115        59       115           10
         1        60       116        60       115           10
         2        60       116        60       115           10
         3        60       116        60       115           10
         1        61       116        60       116           10
         2        61       116        60       116           10
         3        61       116        60       116           10
         1        61       117        60       117           10
         2        61       117        60       117           10
         3        61       117        60       117           10
         1        61       118        60       118           10
         2        61       118        60       118           10
         3        61       118        60       118           10
         1        61       119        61       118           10
         2        61       119        61       118           10
         3        61       119        61       118           10
         1        62       119        61       119           10
         2        62       119        61       119           10
         3        62       119        61       119           10
         1        62       120        61       120           10
         2        62       120        61       120           10
         3        62       120        61       120           10
         1        62       121        61       121           10
         2        62       121        61       121           10
         3        62       121        61       121           10
         1        62       122        62       121           10
         2        62       122        62       121           10
         3        62       122        62       121           10
         1        63       122        62       122           10
         2        63       122        62       122           10
         3        63       122        62       122           10
         1        63       123        62       123           10
         2        63       123        62       123           10
         3        63       123        62       123           10
         1        63       124        62       124           10
         2        63       124        62       124           10
         3        63       124        62       124           10
         1        63       125        63       124           10
         2        63       125        63       124           10
         3        63       125        63       124           10
         1        64       125        63       125           10
         2        64       125        63       125           10
         3        64       125        63       125           10
         1        64       126        63       126           10
         2        64       126        63       126           10
         3        64       126        63       126           10
         1        64       127        63       127           10
         2        64       127        63       127           10
         3        64       127        63       127           10
         1        64       128        64       127           10
         2        64       128        64       127           10
         3        64       128        64       127           10
         1        65       128        64       128           10
         2        65       128        64       128           10
         3        65       128        64       128           10
         1        65       129        64       129           10
         2        65       129        64       129           10
         3        65       129        64       129           10
         1        65       130        64       130           10
         2        65       130        64       130           10
         3        65       130        64       130           10
         1        65       131        65       130           10
         2        65       131        65       130           10
         3        65       131        65       130           10
         1        66       131        65       131           10
         2        66       131        65       131           10
         3        66       131        65       131           10
         1        66       132        65       132           10
         2        66       132        65       132           10
         3        66       132        65       132           10
         1        66       133        65       133           10
         2        66       133        65       133           10
         3        66       133        65       133           10
         1        66       134        66       133           10
         2        66       134        66       133           10
         3        66       134        66       133           10
         1        67       134        66       134           10
         2        67       134        66       134           10
         3        67       134        66       134           10
         1        67       135        66       135           10
         2        67       135        66       135           10
         3        67       135        66       135           10
         1        67       136        66       136           10
         2        67       136        66       136           10
         3        67       136        66       136           10
         1        67       137        66       137           10
         2        67       137        66       137           10
         3        67       137        66       137           10
         1        67       138        67       137           10
         2        67       138        67       137           10
         3        67       138        67       137           10
         1        68       138        67       138           10
         2        68       138        67       138           10
         3        68       138        67       138           10
         1        68       139        67       139           10
         2        68       139        67       139           10
         3        68       139        67       139           10
         1        68       140        67       140           10
         2        68       140        67       140           10
         3        68       140        67       140           10
         1        68       141        68       140           10
         2        68       141        68       140           10
         3        68       141        68       140           10
         1        69       141        68       141           10
         2        69       141        68       141           10
         3        69       141        68       141           10
         1        69       142        68       142           10
         2        69       142        68       142           10
         3        69       142        68       142           10
         1        69       143        68       143           10
         2        69       143        68       143           10
         3        69       143        68       143           10
         1        69       144        68       144           10
         2        69       144        68       144           10
         3        69       144        68       144           10
         1        69       145        69       144           10
         2        69       145        69       144           10
         3        69       145        69       144           10
         1        70       145        69       145           10
         2        70       145        69       145           10
         3        70       145        69       145           10
         1        70       146        69       146           10
         2        70       146        69       146           10
         3        70       146        69       146           10
         1        70       147        69       147           10
         2        70       147        69       147           10
         3        70       147        69       147           10
         1        70       148        70       147           10
         2        70       148        70       147           10
         3        70       148        70       147           10
         1        71       148        70       148           10
         2        71       148        70       148           10
         3        71       148        70       148           10
         1        71       149        70       149           10
         2        71       149        70       149           10
         3        71       149        70       149           10
         1        71       150        70       150           10
         2        71       150        70       150           10
         3        71       150        70       150           10
         1        71       151        70       151           10
         2        71       151        70       151           10
         3        71       151        70       151           10
         1        71       152        71       151           10
         2        71       152        71       151           10
         3        71       152        71       151           10
         1        72       152        71       152           10
         2        72       152        71       152           10
         3        72       152        71       152           10
         1        72       153        71       153           10
         2        72       153        71       153           10
         3        72       153        71       153           10
         1        72       154        71       154           10
         2        72       154        71       154           10
         3        72       154        71       154           10
         1        72       155        71       155           10
         2        72       155        71       155           10
         3        72       155        71       155           10
         1        72       156        72       155           10
         2        72       156        72       155           10
         3        72       156        72       155           10
         1        73       156        72       156           10
         2        73       156        72       156           10
         3        73       156        72       156           10
         1        73       157        72       157           10
         2        73       157        72       157           10
         3        73       157        72       157           10
         1        73       158        72       158           10
         2        73       158        72       158           10
         3        73       158        72       158           10
         1        73       159        72       159           10
         2        73       159        72       159           10
         3        73       159        72       159           10
         1        73       160        72       160           10
         2        73       160        72       160           10
         3        73       160        72       160           10
         1        73       161        73       160           10
         2        73       161        73       160           10
         3        73       161        73       160           10
         1        74       161        73       161           10
         2        74       161        73       161           10
         3        74       161        73       161           10
         1        74       162        73       162           10
         2        74       162        73       162           10
         3        74       162        73       162           10
         1        74       163        73       163           10
         2        74       163        73       163           10
         3        74       163        73       163           10
         1        74       164        73       164           10
         2        74       164        73       164           10
         3        74       164        73       164           10
         1        74       165        74       164           10
         2        74       165        74       164           10
         3        74       165        74       164           10
         1        75       165        74       165           10
         2        75       165        74       165           10
         3        75       165        74       165           10
         1        75       166        74       166           10
         2        75       166        74       166           10
         3        75       166        74       166           10
         1        75       167        74       167           10
         2        75       167        74       167           10
         3        75       167        74       167           10
         1        75       168        74       168           10
         2        75       168        74       168           10
         3        75       168        74       168           10
         1        75       169        75       168           10
         2        75       169        75       168           10
         3        75       169        75       168           10
         1        76       169        75       169           10
         2        76       169        75       169           10
         3        76       169        75       169           10
         1        76       170        75       170           10
         2        76       170        75       170           10
         3        76       170        75       170           10
         1        76       171        75       171           10
         2        76       171        75       171           10
         3        76       171        75       171           10
         1        76       172        76       171           10
         2        76       172        76       171           10
         3        76       172        76       171           10
         1        77       172        76       172           10
         2        77       172        76       172           10
         3        77       172        76       172           10
         1        77       173        76       173           10
         2        77       173        76       173           10
         3        77       173        76       173           10
         1        77       174        77       173           10
         2        77       174        77       173           10
         3        77       174        77       173           10
         1        78       174        77       174           10
         2        78       174        77       174           10
         3        78       174        77       174           10
         1        78       175        77       175           10
         2        78       175        77       175           10
         3        78       175        77       175           10
         1        78       176        77       176           10
         2        78       176        77       176           10
         3        78       176        77       176           10
         1        78       177        78       176           10
         2        78       177        78       176           10
         3        78       177        78       176           10
         1        79       177        78       177           10
         2        79       177        78       177           10
         3        79       177        78       177           10
         1        79       178        78       178           10
         2        79       178        78       178           10
         3        79       178        78       178           10
         1        79       179        79       178           10
         2        79       179        79       178           10
         3        79       179        79       178           10
         1        80       179        79       179           10
         2        80       179        79       179           10
         3        80       179        79       179           10
         1        80       180        79       180           10
         2        80       180        79       180           10
         3        80       180        79       180           10
         1        80       181        79       181           10
         2        80       181        79       181           10
         3        80       181        79       181           10
         1        80       182        80       181           10
         2        80       182        80       181           10
         3        80       182        80       181           10
         1        81       182        80       182           10
         2        81       182        80       182           10
         3        81       182        80       182           10
         1        81       183        80       183           10
         2        81       183        80       183           10
         3        81       183        80       183           10
         1        81       184        80       184           10
         2        81       184        80       184           10