# HOB package for  MODFLOW-NWT, generated by Flopy.
      2342         0         0        53     -9999
         1
HO_7                    3        114        175        -23                  0.0    -0.2935     0.0230     0.0000   # DATASET 3 - Observation 1
         1                                                                                                         # DATASET 5 - Observation 1
HO_7.1                  4                 13.0  2406.8396                                                          # DATASET 6 - Observation 1.1
HO_7.2                 10                 14.0  2402.2397                                                          # DATASET 6 - Observation 1.2
HO_7.3                 16                  0.0  2406.3396                                                          # DATASET 6 - Observation 1.3
HO_7.4                 22                 14.0  2406.5396                                                          # DATASET 6 - Observation 1.4
HO_7.5                 28                 23.0  2407.9397                                                          # DATASET 6 - Observation 1.5
HO_7.6                 47                  5.0  2407.9397                                                          # DATASET 6 - Observation 1.6
HO_7.7                 64                 15.0  2414.0396                                                          # DATASET 6 - Observation 1.7
HO_7.8                 76                 21.0  2416.9397                                                          # DATASET 6 - Observation 1.8
HO_7.9                 88                 27.0  2414.5396                                                          # DATASET 6 - Observation 1.9
HO_7.10                93                 22.0  2421.0396                                                          # DATASET 6 - Observation 1.10
HO_7.11               112                 22.0  2430.6396                                                          # DATASET 6 - Observation 1.11
HO_7.12               118                 24.0  2424.8396                                                          # DATASET 6 - Observation 1.12
HO_7.13               124                 21.0  2433.0396                                                          # DATASET 6 - Observation 1.13
HO_7.14               130                 20.0  2422.6396                                                          # DATASET 6 - Observation 1.14
HO_7.15               136                 13.0  2434.5396                                                          # DATASET 6 - Observation 1.15
HO_7.16               196                  7.0  2409.4497                                                          # DATASET 6 - Observation 1.16
HO_7.17               198                 17.0  2407.6697                                                          # DATASET 6 - Observation 1.17
HO_7.18               203                 16.0  2408.1897                                                          # DATASET 6 - Observation 1.18
HO_7.19               212                 12.0  2407.4897                                                          # DATASET 6 - Observation 1.19
HO_7.20               216                  9.0  2404.7397                                                          # DATASET 6 - Observation 1.20
HO_7.21               222                 28.0  2406.0396                                                          # DATASET 6 - Observation 1.21
HO_7.22               246                 24.0  2401.4097                                                          # DATASET 6 - Observation 1.22
HO_7.23               251                 26.0  2401.5396                                                          # DATASET 6 - Observation 1.23
HO_10                   1        110        159        -21                  0.0     0.4754     0.3250     0.0000   # DATASET 3 - Observation 2
         1                                                                                                         # DATASET 5 - Observation 2
HO_10.1                 4                 12.0  2299.7944                                                          # DATASET 6 - Observation 2.1
HO_10.2                10                 14.0  2299.8945                                                          # DATASET 6 - Observation 2.2
HO_10.3                16                 12.0  2299.7944                                                          # DATASET 6 - Observation 2.3
HO_10.4                28                 25.0  2299.7944                                                          # DATASET 6 - Observation 2.4
HO_10.5                34                 25.0  2299.7944                                                          # DATASET 6 - Observation 2.5
HO_10.6                40                 18.0  2299.9946                                                          # DATASET 6 - Observation 2.6
HO_10.7                47                  6.0  2299.7944                                                          # DATASET 6 - Observation 2.7
HO_10.8                52                 23.0  2299.9946                                                          # DATASET 6 - Observation 2.8
HO_10.9                58                 24.0  2299.9946                                                          # DATASET 6 - Observation 2.9
HO_10.10               64                 15.0  2300.1946                                                          # DATASET 6 - Observation 2.10
HO_10.11               70                 29.0  2300.0945                                                          # DATASET 6 - Observation 2.11
HO_10.12               76                 19.0  2300.6946                                                          # DATASET 6 - Observation 2.12
HO_10.13               83                  2.0  2300.7944                                                          # DATASET 6 - Observation 2.13
HO_10.14               88                 14.0  2300.9946                                                          # DATASET 6 - Observation 2.14
HO_10.15              100                 13.0  2301.3945                                                          # DATASET 6 - Observation 2.15
HO_10.16              107                 15.0  2301.3945                                                          # DATASET 6 - Observation 2.16
HO_10.17              112                 23.0  2301.7944                                                          # DATASET 6 - Observation 2.17
HO_10.18              118                 24.0  2301.9946                                                          # DATASET 6 - Observation 2.18
HO_10.19              124                 21.0  2302.7944                                                          # DATASET 6 - Observation 2.19
HO_10.20              130                 20.0  2303.3945                                                          # DATASET 6 - Observation 2.20
HO_10.21              136                 13.0  2302.9946                                                          # DATASET 6 - Observation 2.21
HO_17                   1        104        184        154                 24.0     0.4604     0.1667  2238.3933   # DATASET 3 - Observation 3
HO_19                   3        101        180        230                 14.0     0.1822    -0.1181  2257.9575   # DATASET 3 - Observation 4
HO_24                   1         97        165         11                  8.0    -0.0459    -0.4308  2213.9177   # DATASET 3 - Observation 5
HO_43                   1         90        179        110                  8.0    -0.1872    -0.4111  2254.7473   # DATASET 3 - Observation 6
HO_48                   3         89        168        249                 18.0    -0.3073    -0.2328  2262.9001   # DATASET 3 - Observation 7
HO_49                   1         89        192         -2                  0.0     0.4989    -0.4399     0.0000   # DATASET 3 - Observation 8
         1                                                                                                         # DATASET 5 - Observation 8
HO_49.1               240                 14.0  2273.2178                                                          # DATASET 6 - Observation 8.1
HO_49.2               249                 14.0  2258.2178                                                          # DATASET 6 - Observation 8.2
HO_60                   1         84        145         -2                  0.0    -0.2295     0.0375     0.0000   # DATASET 3 - Observation 9
         1                                                                                                         # DATASET 5 - Observation 9
HO_60.1                 4                 12.0  2185.9175                                                          # DATASET 6 - Observation 9.1
HO_60.2                47                  6.0  2175.3174                                                          # DATASET 6 - Observation 9.2
HO_86                   3         80        148        252                 11.0    -0.1486     0.1377  2177.5737   # DATASET 3 - Observation 10
HO_96                   1         76        198       -231                  0.0    -0.3730     0.4441     0.0000   # DATASET 3 - Observation 11
         1                                                                                                         # DATASET 5 - Observation 11
HO_96.1                 1                 20.0  2856.2029                                                          # DATASET 6 - Observation 11.1
HO_96.2                 2                 22.0  2893.2029                                                          # DATASET 6 - Observation 11.2
HO_96.3                 3                 22.0  2895.2029                                                          # DATASET 6 - Observation 11.3
HO_96.4                 4                 15.0  2893.2029                                                          # DATASET 6 - Observation 11.4
HO_96.5                 5                  2.0  2893.2029                                                          # DATASET 6 - Observation 11.5
HO_96.6                 6                 25.0  2863.2029                                                          # DATASET 6 - Observation 11.6
HO_96.7                 7                 12.0  2862.2029                                                          # DATASET 6 - Observation 11.7
HO_96.8                 8                  4.0  2869.2029                                                          # DATASET 6 - Observation 11.8
HO_96.9                 8                 17.0  2864.2029                                                          # DATASET 6 - Observation 11.9
HO_96.10                9                  1.0  2851.2029                                                          # DATASET 6 - Observation 11.10
HO_96.11                9                 22.0  2853.2029                                                          # DATASET 6 - Observation 11.11
HO_96.12               10                 20.0  3153.2029                                                          # DATASET 6 - Observation 11.12
HO_96.13               11                  4.0  3153.2029                                                          # DATASET 6 - Observation 11.13
HO_96.14               12                  6.0  3153.2029                                                          # DATASET 6 - Observation 11.14
HO_96.15               13                 17.0  3153.2029                                                          # DATASET 6 - Observation 11.15
HO_96.16               14                  9.0  3153.2029                                                          # DATASET 6 - Observation 11.16
HO_96.17               16                  4.0  3153.2029                                                          # DATASET 6 - Observation 11.17
HO_96.18               18                 16.0  3086.2029                                                          # DATASET 6 - Observation 11.18
HO_96.19               19                  0.0  3086.0029                                                          # DATASET 6 - Observation 11.19
HO_96.20               20                 15.0  3077.2029                                                          # DATASET 6 - Observation 11.20
HO_96.21               21                  0.0  3077.9028                                                          # DATASET 6 - Observation 11.21
HO_96.22               37                 14.0  3084.4028                                                          # DATASET 6 - Observation 11.22
HO_96.23               38                 14.0  3092.8027                                                          # DATASET 6 - Observation 11.23
HO_96.24               39                 14.0  3087.2029                                                          # DATASET 6 - Observation 11.24
HO_96.25               40                 14.0  3063.9028                                                          # DATASET 6 - Observation 11.25
HO_96.26               41                  8.0  3065.8027                                                          # DATASET 6 - Observation 11.26
HO_96.27               41                 22.0  3063.8027                                                          # DATASET 6 - Observation 11.27
HO_96.28               42                 13.0  3061.9028                                                          # DATASET 6 - Observation 11.28
HO_96.29               42                 29.0  3061.6028                                                          # DATASET 6 - Observation 11.29
HO_96.30               43                 16.0  3062.2029                                                          # DATASET 6 - Observation 11.30
HO_96.31               44                  5.0  3062.8027                                                          # DATASET 6 - Observation 11.31
HO_96.32               44                 16.0  3061.2029                                                          # DATASET 6 - Observation 11.32
HO_96.33               44                 28.0  3060.8027                                                          # DATASET 6 - Observation 11.33
HO_96.34               45                 18.0  3064.2029                                                          # DATASET 6 - Observation 11.34
HO_96.35               45                 27.0  3063.2029                                                          # DATASET 6 - Observation 11.35
HO_96.36               46                  9.0  3059.9028                                                          # DATASET 6 - Observation 11.36
HO_96.37               46                 21.0  3059.2029                                                          # DATASET 6 - Observation 11.37
HO_96.38               47                 15.0  3084.1028                                                          # DATASET 6 - Observation 11.38
HO_96.39               48                 27.0  3084.2029                                                          # DATASET 6 - Observation 11.39
HO_96.40               49                 24.0  3084.0029                                                          # DATASET 6 - Observation 11.40
HO_96.41               50                 24.0  3083.0029                                                          # DATASET 6 - Observation 11.41
HO_96.42               51                 26.0  2981.8027                                                          # DATASET 6 - Observation 11.42
HO_96.43               52                 14.0  2980.0029                                                          # DATASET 6 - Observation 11.43
HO_96.44               53                  0.0  2987.0029                                                          # DATASET 6 - Observation 11.44
HO_96.45               53                 17.0  2982.2029                                                          # DATASET 6 - Observation 11.45
HO_96.46               54                  4.0  2986.0029                                                          # DATASET 6 - Observation 11.46
HO_96.47               54                 23.0  2983.9028                                                          # DATASET 6 - Observation 11.47
HO_96.48               55                 14.0  2965.8027                                                          # DATASET 6 - Observation 11.48
HO_96.49               56                  4.0  2964.9028                                                          # DATASET 6 - Observation 11.49
HO_96.50               56                 18.0  2964.0029                                                          # DATASET 6 - Observation 11.50
HO_96.51               57                  2.0  2964.8027                                                          # DATASET 6 - Observation 11.51
HO_96.52               57                 23.0  2962.8027                                                          # DATASET 6 - Observation 11.52
HO_96.53               58                  9.0  2961.2029                                                          # DATASET 6 - Observation 11.53
HO_96.54               59                 10.0  2966.2029                                                          # DATASET 6 - Observation 11.54
HO_96.55               60                 15.0  2983.8027                                                          # DATASET 6 - Observation 11.55
HO_96.56               61                 11.0  2975.2029                                                          # DATASET 6 - Observation 11.56
HO_96.57               61                 29.0  2973.2029                                                          # DATASET 6 - Observation 11.57
HO_96.58               62                 27.0  2983.9028                                                          # DATASET 6 - Observation 11.58
HO_96.59               63                 27.0  2986.2029                                                          # DATASET 6 - Observation 11.59
HO_96.60               64                 14.0  2978.9028                                                          # DATASET 6 - Observation 11.60
HO_96.61               65                  5.0  2975.2029                                                          # DATASET 6 - Observation 11.61
HO_96.62               65                 25.0  2970.2029                                                          # DATASET 6 - Observation 11.62
HO_96.63               66                 11.0  2967.2029                                                          # DATASET 6 - Observation 11.63
HO_96.64               67                  2.0  2962.2029                                                          # DATASET 6 - Observation 11.64
HO_96.65               67                 20.0  2961.9028                                                          # DATASET 6 - Observation 11.65
HO_96.66               68                 10.0  2962.2029                                                          # DATASET 6 - Observation 11.66
HO_96.67               68                 26.0  2960.2029                                                          # DATASET 6 - Observation 11.67
HO_96.68               69                 17.0  2958.9028                                                          # DATASET 6 - Observation 11.68
HO_96.69               70                  8.0  2960.2029                                                          # DATASET 6 - Observation 11.69
HO_96.70               71                  4.0  2973.0029                                                          # DATASET 6 - Observation 11.70
HO_96.71               72                 11.0  2973.2029                                                          # DATASET 6 - Observation 11.71
HO_96.72               73                 11.0  2969.2029                                                          # DATASET 6 - Observation 11.72
HO_96.73               74                 12.0  2975.2029                                                          # DATASET 6 - Observation 11.73
HO_96.74               75                 15.0  2962.0029                                                          # DATASET 6 - Observation 11.74
HO_96.75               76                 14.0  2964.0029                                                          # DATASET 6 - Observation 11.75
HO_96.76               77                 11.0  2963.2029                                                          # DATASET 6 - Observation 11.76
HO_96.77               78                  0.0  2961.8027                                                          # DATASET 6 - Observation 11.77
HO_96.78               78                 15.0  2965.8027                                                          # DATASET 6 - Observation 11.78
HO_96.79               79                  2.0  2965.8027                                                          # DATASET 6 - Observation 11.79
HO_96.80               79                 18.0  2964.8027                                                          # DATASET 6 - Observation 11.80
HO_96.81               80                  5.0  2963.2029                                                          # DATASET 6 - Observation 11.81
HO_96.82               80                 29.0  2961.2029                                                          # DATASET 6 - Observation 11.82
HO_96.83               81                 14.0  2963.9028                                                          # DATASET 6 - Observation 11.83
HO_96.84               82                  9.0  2964.0029                                                          # DATASET 6 - Observation 11.84
HO_96.85               82                 26.0  2965.9028                                                          # DATASET 6 - Observation 11.85
HO_96.86               83                 18.0  2966.2029                                                          # DATASET 6 - Observation 11.86
HO_96.87               84                 12.0  2970.9028                                                          # DATASET 6 - Observation 11.87
HO_96.88               85                 16.0  2969.2029                                                          # DATASET 6 - Observation 11.88
HO_96.89               86                 16.0  2967.2029                                                          # DATASET 6 - Observation 11.89
HO_96.90               87                 16.0  2967.2029                                                          # DATASET 6 - Observation 11.90
HO_96.91               88                 12.0  2987.2029                                                          # DATASET 6 - Observation 11.91
HO_96.92               89                 13.0  2983.2029                                                          # DATASET 6 - Observation 11.92
HO_96.93               90                  0.0  2979.0029                                                          # DATASET 6 - Observation 11.93
HO_96.94               90                 23.0  2973.2029                                                          # DATASET 6 - Observation 11.94
HO_96.95               91                  9.0  2962.2029                                                          # DATASET 6 - Observation 11.95
HO_96.96               91                 29.0  2961.2029                                                          # DATASET 6 - Observation 11.96
HO_96.97               92                 15.0  2960.2029                                                          # DATASET 6 - Observation 11.97
HO_96.98               93                  5.0  3009.2029                                                          # DATASET 6 - Observation 11.98
HO_96.99               93                 19.0  3055.0029                                                          # DATASET 6 - Observation 11.99
HO_96.100              94                  7.0  3089.2029                                                          # DATASET 6 - Observation 11.100
HO_96.101              95                  9.0  3099.8027                                                          # DATASET 6 - Observation 11.101
HO_96.102              96                 12.0  3106.9028                                                          # DATASET 6 - Observation 11.102
HO_96.103              97                 12.0  3110.2029                                                          # DATASET 6 - Observation 11.103
HO_96.104              98                  5.0  3113.2029                                                          # DATASET 6 - Observation 11.104
HO_96.105              99                  5.0  3112.2029                                                          # DATASET 6 - Observation 11.105
HO_96.106             100                 14.0  3107.2029                                                          # DATASET 6 - Observation 11.106
HO_96.107             101                 21.0  3105.2029                                                          # DATASET 6 - Observation 11.107
HO_96.108             102                 10.0  3102.2029                                                          # DATASET 6 - Observation 11.108
HO_96.109             102                 24.0  3099.2029                                                          # DATASET 6 - Observation 11.109
HO_96.110             103                 16.0  3045.6028                                                          # DATASET 6 - Observation 11.110
HO_96.111             104                  1.0  3042.2029                                                          # DATASET 6 - Observation 11.111
HO_96.112             104                 21.0  3041.2029                                                          # DATASET 6 - Observation 11.112
HO_96.113             105                  9.0  3042.2029                                                          # DATASET 6 - Observation 11.113
HO_96.114             106                  1.0  3044.2029                                                          # DATASET 6 - Observation 11.114
HO_96.115             106                 18.0  3042.0029                                                          # DATASET 6 - Observation 11.115
HO_96.116             107                 14.0  3036.8027                                                          # DATASET 6 - Observation 11.116
HO_96.117             108                 14.0  3153.2029                                                          # DATASET 6 - Observation 11.117
HO_96.118             109                 14.0  3153.2029                                                          # DATASET 6 - Observation 11.118
HO_96.119             110                 14.0  3153.2029                                                          # DATASET 6 - Observation 11.119
HO_96.120             111                 14.0  3153.2029                                                          # DATASET 6 - Observation 11.120
HO_96.121             112                 14.0  3153.2029                                                          # DATASET 6 - Observation 11.121
HO_96.122             113                  3.0  3153.2029                                                          # DATASET 6 - Observation 11.122
HO_96.123             113                 20.0  3153.2029                                                          # DATASET 6 - Observation 11.123
HO_96.124             114                  5.0  3153.2029                                                          # DATASET 6 - Observation 11.124
HO_96.125             114                 22.0  3065.2029                                                          # DATASET 6 - Observation 11.125
HO_96.126             115                  3.0  3067.8027                                                          # DATASET 6 - Observation 11.126
HO_96.127             115                 23.0  3067.2029                                                          # DATASET 6 - Observation 11.127
HO_96.128             116                  7.0  3067.2029                                                          # DATASET 6 - Observation 11.128
HO_96.129             116                 22.0  3055.2029                                                          # DATASET 6 - Observation 11.129
HO_96.130             117                  4.0  3057.2029                                                          # DATASET 6 - Observation 11.130
HO_96.131             117                 25.0  3059.2029                                                          # DATASET 6 - Observation 11.131
HO_96.132             118                  9.0  3057.2029                                                          # DATASET 6 - Observation 11.132
HO_96.133             137                 18.0  3047.2029                                                          # DATASET 6 - Observation 11.133
HO_96.134             146                 21.0  3052.2029                                                          # DATASET 6 - Observation 11.134
HO_96.135             147                  0.0  3051.2029                                                          # DATASET 6 - Observation 11.135
HO_96.136             147                  7.0  3051.2029                                                          # DATASET 6 - Observation 11.136
HO_96.137             147                 29.0  3052.2029                                                          # DATASET 6 - Observation 11.137
HO_96.138             148                 18.0  3051.2029                                                          # DATASET 6 - Observation 11.138
HO_96.139             148                 25.0  3050.2029                                                          # DATASET 6 - Observation 11.139