# GHB package for  MODFLOW-NWT, generated by Flopy.
       704         1
       704         0 # stress period 0
         1        52       107   1.6801008E+03   1.6017150E+04
         1        51       103   1.6748101E+03   1.4842420E+04
         1        51       104   1.6766689E+03   1.4939582E+04
         1        51       105   1.6785278E+03   1.5097352E+04
         1        51       106   1.6803868E+03   1.5552283E+04
         1        51       108   1.6841046E+03   1.5328748E+04
         1        50       109   1.6881085E+03   1.4029314E+04
         1        49       110   1.6921124E+03   1.3467847E+04
         1        48       111   1.6961162E+03   1.3193115E+04
         1        47       111   1.6982611E+03   1.3062791E+04
         1        46       111   1.7004061E+03   1.3116916E+04
         1        45       111   1.7025510E+03   1.3199617E+04
         1        44       110   1.7028370E+03   1.3287578E+04
         1        43       109   1.7031230E+03   1.3699064E+04
         1        42       109   1.7052679E+03   1.4195684E+04
         1        41       109   1.7074128E+03   1.4625005E+04
         1        40       109   1.7095577E+03   1.3076072E+04
         1        39       109   1.7117026E+03   1.1405049E+04
         2        52       107   1.6801008E+03   2.8514176E+07
         2        51       103   1.6748101E+03   1.1703195E+07
         2        51       104   1.6766689E+03   1.5248793E+07
         2        51       105   1.6785278E+03   1.8500058E+07
         2        51       106   1.6803868E+03   2.2091156E+07
         2        51       108   1.6841046E+03   2.5398136E+07
         2        50       109   1.6881085E+03   2.0224108E+07
         2        49       110   1.6921124E+03   1.7970330E+07
         2        48       111   1.6961162E+03   1.7044402E+07
         2        47       111   1.6982611E+03   1.5163156E+07
         2        46       111   1.7004061E+03   1.3857451E+07
         2        45       111   1.7025510E+03   1.2757372E+07
         2        44       110   1.7028370E+03   9.9080650E+06
         2        43       109   1.7031230E+03   4.7708280E+06
         2        42       109   1.7052679E+03   2.5310218E+06
         2        41       109   1.7074128E+03   1.4625005E+06
         2        40       109   1.7095577E+03   1.3076071E+06
         2        39       109   1.7117026E+03   1.1405049E+06
         2        38       109   1.7138477E+03   9.4190675E+05
         3        52       107   1.6801008E+03   2.8514176E+09
         3        51       103   1.6748101E+03   1.1703195E+09
         3        51       104   1.6766689E+03   1.5248792E+09
         3        51       105   1.6785278E+03   1.8500059E+09
         3        51       106   1.6803868E+03   2.2091156E+09
         3        51       108   1.6841046E+03   2.5398136E+09
         3        50       109   1.6881085E+03   2.0224108E+09
         3        49       110   1.6921124E+03   1.7970331E+09
         3        48       111   1.6961162E+03   1.7044402E+09
         3        47       111   1.6982611E+03   1.5163155E+09
         3        46       111   1.7004061E+03   1.3857450E+09
         3        45       111   1.7025510E+03   1.2757372E+09
         3        44       110   1.7028370E+03   9.9080653E+08
         3        43       109   1.7031230E+03   4.7708282E+08
         3        42       109   1.7052679E+03   2.8505878E+08
         3        41       109   1.7074128E+03   2.4520824E+08
         3        40       109   1.7095577E+03   3.2549667E+08
         3        39       109   1.7117026E+03   3.7562346E+08
         3        38       109   1.7138477E+03   4.0829462E+08
         3        37       110   1.7178514E+03   3.9792861E+08
         3        37       111   1.7197104E+03   4.0366538E+08
         3        37       112   1.7215693E+03   4.1745200E+08
         3        37       113   1.7234282E+03   4.1571376E+08
         3        37       114   1.7252872E+03   4.1654970E+08
         3        36       115   1.7292910E+03   3.8923318E+08
         3        36       116   1.7311500E+03   3.9477994E+08
         1        54        87   1.5341370E+03   1.2801682E+04
         1        54        88   1.5440023E+03   1.3415615E+04
         1        53        86   1.5224446E+03   1.3339348E+04
         1        53        89   1.5520408E+03   1.4485430E+04
         1        53        90   1.5619061E+03   1.4615383E+04
         1        53        91   1.5717715E+03   1.4490928E+04
         1        53        92   1.5816370E+03   1.4163504E+04
         1        53        94   1.6013677E+03   1.5487869E+04
         1        52        82   1.4811561E+03   1.3200425E+04
         1        52        83   1.4910215E+03   1.3512723E+04
         1        52        84   1.5008870E+03   1.3164531E+04
         1        52        85   1.5107523E+03   1.2865439E+04
         1        52        93   1.5896754E+03   1.4933374E+04
         1        52        95   1.6094061E+03   1.5524621E+04
         1        52        96   1.6192715E+03   1.5235598E+04
         1        51        81   1.4694639E+03   1.2580034E+04
         1        51        97   1.6273101E+03   1.5408777E+04
         1        51        98   1.6371754E+03   1.5456320E+04
         1        51        99   1.6470408E+03   1.5318628E+04
         1        50        78   1.4380408E+03   1.0973264E+04
         1        50        79   1.4479061E+03   1.1249998E+04
         1        50        80   1.4577715E+03   1.1750332E+04
         1        50       100   1.6550792E+03   1.5402023E+04
         1        50       101   1.6649446E+03   1.5261473E+04
         1        50       102   1.6748101E+03   1.4877922E+04
         1        41        50   1.1453677E+03   8.7186133E+03
         1        40        49   1.1336754E+03   6.9540723E+03
         2        54        87   1.5341370E+03   2.8082112E+07
         2        54        88   1.5440023E+03   3.0776568E+07
         2        53        86   1.5224446E+03   1.7863982E+07
         2        53        89   1.5520408E+03   2.1133546E+07
         2        53        90   1.5619061E+03   2.0019088E+07
         2        53        91   1.5717715E+03   1.8591576E+07
         2        53        92   1.5816370E+03   1.6250260E+07
         2        53        94   1.6013677E+03   1.4496306E+07
         2        52        82   1.4811561E+03   6.9008425E+06
         2        52        83   1.4910215E+03   7.2004795E+06
         2        52        84   1.5008870E+03   8.0054750E+06
         2        52        85   1.5107523E+03   9.3685770E+06
         2        52        93   1.5896754E+03   6.7125370E+06
         2        52        95   1.6094061E+03   7.4275950E+06
         2        52        96   1.6192715E+03   7.5661820E+06
         2        51        81   1.4694639E+03   5.4236485E+06
         2        51        97   1.6273101E+03   3.3802345E+06
         2        51        98   1.6371754E+03   4.3442565E+06
         2        51        99   1.6470408E+03   4.7348530E+06
         2        50        78   1.4380408E+03   3.6834415E+06
         2        50        79   1.4479061E+03   3.1817140E+06
         2        50        80   1.4577715E+03   3.5320405E+06
         2        50       100   1.6550792E+03   3.1566892E+06
         2        50       101   1.6649446E+03   4.2787175E+06
         2        50       102   1.6748101E+03   5.6155275E+06
         2        49        77   1.4263485E+03   3.6067110E+06
         2        48        64   1.2962715E+03   2.2370078E+06
         2        48        65   1.3061370E+03   2.8670895E+06
         2        48        76   1.4146561E+03   3.9471032E+06
         2        47        63   1.2845792E+03   2.5088692E+06
         2        47        66   1.3141754E+03   4.4413160E+06
         2        47        74   1.3930985E+03   4.4716790E+06
         2        47        75   1.4029639E+03   3.7721062E+06
         2        47        76   1.4128292E+03   3.1197480E+06
         2        46        60   1.2531561E+03   1.2847644E+06
         2        46        61   1.2630215E+03   2.0971149E+06
         2        46        62   1.2728870E+03   1.7818775E+06
         2        46        67   1.3222139E+03   6.8094050E+06
         2        46        68   1.3320792E+03   8.2731095E+06
         2        46        69   1.3419446E+03   6.0932285E+06
         2        46        70   1.3518101E+03   5.8450700E+06
         2        46        71   1.3616754E+03   5.5002140E+06
         2        46        72   1.3715408E+03   5.0114175E+06
         2        46        73   1.3814061E+03   4.4468385E+06
         2        45        58   1.2315985E+03   1.2006581E+06
         2        45        59   1.2414639E+03   1.8536734E+06
         2        44        55   1.2001754E+03   8.2821081E+05
         2        44        56   1.2100408E+03   1.4462704E+06
         2        44        57   1.2199061E+03   2.1122320E+06
         2        43        52   1.1687523E+03   8.5183938E+05
         2        43        53   1.1786177E+03   1.0875514E+06
         2        43        54   1.1884830E+03   1.4336944E+06
         2        42        51   1.1570601E+03   8.8659231E+05
         2        41        50   1.1453677E+03   8.7186131E+05
         2        40        49   1.1336754E+03   6.9540725E+05
         3        54        87   1.5341370E+03   2.8082112E+09
         3        54        88   1.5440023E+03   3.0776568E+09
         3        53        86   1.5224446E+03   1.7863983E+09
         3        53        89   1.5520408E+03   2.1133548E+09
         3        53        90   1.5619061E+03   2.0019087E+09
         3        53        91   1.5717715E+03   1.8591575E+09
         3        53        92   1.5816370E+03   1.6250260E+09
         3        53        94   1.6013677E+03   1.4496306E+09
         3        52        82   1.4811561E+03   6.9008429E+08
         3        52        83   1.4910215E+03   7.2004794E+08
         3        52        84   1.5008870E+03   8.0054746E+08
         3        52        85   1.5107523E+03   9.3685773E+08
         3        52        93   1.5896754E+03   6.7125370E+08
         3        52        95   1.6094061E+03   7.4275955E+08
         3        52        96   1.6192715E+03   7.5661818E+08
         3        51        81   1.4694639E+03   5.4236486E+08
         3        51        97   1.6273101E+03   3.3802346E+08
         3        51        98   1.6371754E+03   4.3442563E+08
         3        51        99   1.6470408E+03   4.7348528E+08
         3        50        78   1.4380408E+03   7.0019968E+08
         3        50        79   1.4479061E+03   6.8404288E+08
         3        50        80   1.4577715E+03   5.9931488E+08
         3        50       100   1.6550792E+03   3.1566893E+08
         3        50       101   1.6649446E+03   4.2787174E+08
         3        50       102   1.6748101E+03   5.6155277E+08
         3        49        77   1.4263485E+03   7.2943949E+08
         3        48        64   1.2962715E+03   2.4335823E+09
         3        48        65   1.3061370E+03   2.6011354E+09
         3        48        76   1.4146561E+03   6.6604045E+08
         3        47        63   1.2845792E+03   2.4793490E+09
         3        47        66   1.3141754E+03   2.0341816E+09
         3        47        74   1.3930985E+03   4.4716787E+08
         3        47        75   1.4029639E+03   6.1516755E+08
         3        47        76   1.4128292E+03   6.8111501E+08
         3        46        60   1.2531561E+03   1.4541388E+09
         3        46        61   1.2630215E+03   2.0718410E+09
         3        46        62   1.2728870E+03   1.5265242E+09
         3        46        67   1.3222139E+03   6.8094054E+08
         3        46        68   1.3320792E+03   8.2731091E+08
         3        46        69   1.3419446E+03   6.0932288E+08
         3        46        70   1.3518101E+03   5.8450701E+08
         3        46        71   1.3616754E+03   5.5002144E+08
         3        46        72   1.3715408E+03   5.0114173E+08
         3        46        73   1.3814061E+03   4.4468384E+08
         3        45        58   1.2315985E+03   1.4601766E+09
         3        45        59   1.2414639E+03   1.9123601E+09
         3        44        55   1.2001754E+03   1.1566930E+09
         3        44        56   1.2100408E+03   1.8126796E+09
         3        44        57   1.2199061E+03   2.3050271E+09
         3        43        52   1.1687523E+03   1.3623071E+09
         3        43        53   1.1786177E+03   1.5480717E+09
         3        43        54   1.1884830E+03   1.8158764E+09
         3        42        51   1.1570601E+03   1.3986321E+09
         3        41        50   1.1453677E+03   1.4425201E+09
         3        40        48   1.1238101E+03   1.6313578E+08
         3        40        49   1.1336754E+03   1.2405985E+09
         1        28        36   1.0542295E+03   8.5335156E+03
         1        27        35   1.0481135E+03   8.5830869E+03
         1        26        35   1.0458088E+03   9.4220684E+03
         1        25        34   1.0396929E+03   9.2376211E+03
         1        24        33   1.0335769E+03   8.9690000E+03
         1        23        31   1.0236495E+03   7.5041221E+03
         1        23        32   1.0274609E+03   8.5128848E+03
         1        22        30   1.0175335E+03   6.8921240E+03
         1        21        28   1.0076061E+03   5.0707480E+03
         1        21        29   1.0114175E+03   6.1533975E+03
         1        20        26   9.9767865E+02   2.9578101E+03
         1        20        27   1.0014901E+03   4.0718982E+03
         2        40        47   1.1238101E+03   2.0000000E+05
         2        39        46   1.1176940E+03   2.0000000E+05
         2        38        44   1.1077666E+03   2.0000000E+05
         2        38        45   1.1115780E+03   2.0000000E+05
         2        37        43   1.1016506E+03   2.0000000E+05
         2        36        42   1.0955345E+03   2.0000000E+05
         2        35        41   1.0894186E+03   2.0000000E+05
         2        34        41   1.0871140E+03   2.0000000E+05
         2        33        40   1.0809980E+03   2.0000000E+05
         2        32        39   1.0748821E+03   2.0000000E+05
         2        31        39   1.0725774E+03   2.0000000E+05
         2        30        38   1.0664614E+03   2.0000000E+05
         2        29        37   1.0603455E+03   2.0000000E+05
         2        28        36   1.0542295E+03   8.5335156E+05
         2        27        35   1.0481135E+03   8.5830869E+05
         2        26        35   1.0458088E+03   9.4220681E+05
         2        25        34   1.0396929E+03   9.2376206E+05
         2        24        33   1.0335769E+03   8.9690000E+05
         2        23        31   1.0236495E+03   7.5041225E+05
         2        23        32   1.0274609E+03   8.5128844E+05
         2        22        30   1.0175335E+03   6.8921238E+05
         2        21        28   1.0076061E+03   5.0707484E+05
         2        21        29   1.0114175E+03   6.1533975E+05
         2        20        24   9.9005585E+02   1.9999988E+05
         2        20        25   9.9386725E+02   2.0000000E+05
         2        20        26   9.9767865E+02   2.9578100E+05
         2        20        27   1.0014901E+03   4.0718981E+05
         2        19        22   9.8012842E+02   2.0000012E+05
         2        19        23   9.8393982E+02   2.0000000E+05
         2        18        20   9.7020099E+02   1.9999988E+05
         2        18        21   9.7401239E+02   2.0000000E+05
         2        17        17   9.5646216E+02   2.0000000E+05
         2        17        18   9.6027356E+02   2.0000000E+05
         2        17        19   9.6408502E+02   2.0000000E+05
         2        16         6   9.1223199E+02   2.0000000E+05
         2        16         7   9.1604340E+02   2.0000000E+05
         2        16         8   9.1985480E+02   2.0000012E+05
         2        16         9   9.2366626E+02   2.0000000E+05
         2        16        10   9.2747766E+02   2.0000000E+05
         2        16        11   9.3128906E+02   2.0000000E+05
         2        16        12   9.3510052E+02   1.9999988E+05
         2        16        13   9.3891193E+02   2.0000012E+05
         2        16        14   9.4272333E+02   1.9999988E+05
         2        16        15   9.4653473E+02   2.0000012E+05
         2        16        16   9.5034619E+02   2.0000012E+05
         2        15         5   9.0611597E+02   2.0000000E+05
         2        14         4   9.0000000E+02   2.0000000E+05
         3        40        47   1.1238101E+03   1.5848829E+08
         3        39        46   1.1176940E+03   1.5994771E+08
         3        38        44   1.1077666E+03   1.6063115E+08
         3        38        45   1.1115780E+03   1.6034858E+08
         3        37        43   1.1016506E+03   1.6114234E+08
         3        36        42   1.0955345E+03   1.6099112E+08
         3        35        41   1.0894186E+03   1.6060426E+08
         3        34        41   1.0871140E+03   1.6072691E+08
         3        33        40   1.0809980E+03   1.6050112E+08
         3        32        39   1.0748821E+03   1.6021429E+08
         3        31        39   1.0725774E+03   1.6032202E+08
         3        30        38   1.0664614E+03   1.6042176E+08
         3        29        37   1.0603455E+03   1.6024915E+08
         3        28        36   1.0542295E+03   1.5123409E+09
         3        27        35   1.0481135E+03   1.5716632E+09
         3        26        35   1.0458088E+03   1.6184044E+09
         3        25        34   1.0396929E+03   1.6846278E+09
         3        24        33   1.0335769E+03   1.7393939E+09
         3        23        31   1.0236495E+03   1.7188603E+09
         3        23        32   1.0274609E+03   1.7698835E+09
         3        22        30   1.0175335E+03   1.6875913E+09
         3        21        28   1.0076061E+03   1.4215597E+09
         3        21        29   1.0114175E+03   1.6094502E+09
         3        20        24   9.9005585E+02   6.7868730E+08
         3        20        25   9.9386725E+02   6.5596160E+08
         3        20        26   9.9767865E+02   9.2111866E+08
         3        20        27   1.0014901E+03   1.1993608E+09
         3        19        22   9.8012842E+02   7.1825818E+08
         3        19        23   9.8393982E+02   6.9674893E+08
         3        18        20   9.7020099E+02   7.5824698E+08
         3        18        21   9.7401239E+02   7.3632269E+08
         3        17        17   9.5646216E+02   8.2316262E+08
         3        17        18   9.6027356E+02   7.9946867E+08
         3        17        19   9.6408502E+02   7.7652122E+08
         3        16         6   9.1223199E+02   1.1479279E+09
         3        16         7   9.1604340E+02   1.1152328E+09
         3        16         8   9.1985480E+02   1.0832698E+09
         3        16         9   9.2366626E+02   1.0518510E+09
         3        16        10   9.2747766E+02   1.0210490E+09
         3        16        11   9.3128906E+02   9.9117210E+08
         3        16        12   9.3510052E+02   9.4974240E+08
         3        16        13   9.3891193E+02   9.2197734E+08
         3        16        14   9.4272333E+02   8.9487546E+08
         3        16        15   9.4653473E+02   8.6833434E+08
         3        16        16   9.5034619E+02   8.4312954E+08
         3        15         5   9.0611597E+02   1.1790959E+09
         3        14         4   9.0000000E+02   1.5968013E+08
         1        21        10   9.4968665E+02   0.0000000E+00
         1        21        11   9.5336243E+02   0.0000000E+00
         2        32        26   1.0461445E+03   0.0000000E+00
         2        31        26   1.0427223E+03   0.0000000E+00
         2        30        26   1.0393000E+03   0.0000000E+00
         2        29        26   1.0358777E+03   0.0000000E+00
         2        28        26   1.0324554E+03   0.0000000E+00
         2        27        25   1.0253573E+03   0.0000000E+00
         2        26        22   1.0109077E+03   0.0000000E+00
         2        26        23   1.0145834E+03   0.0000000E+00
         2        26        24   1.0182592E+03   0.0000000E+00
         2        25        21   1.0038096E+03   0.0000000E+00
         2        24        19   9.9303564E+02   0.0000000E+00
         2        24        20   9.9671149E+02   0.0000000E+00
         2        23        16   9.7858600E+02   0.0000000E+00
         2        23        17   9.8226178E+02   0.0000000E+00
         2        23        18   9.8593756E+02   0.0000000E+00
         2        22        13   9.6413629E+02   0.0000000E+00
         2        22        14   9.6781207E+02   0.0000000E+00
         2        22        15   9.7148792E+02   0.0000000E+00
         2        21        10   9.4968665E+02   0.0000000E+00
         2        21        11   9.5336243E+02   0.0000000E+00
         2        21        12   9.5703821E+02   0.0000000E+00
         2        20         9   9.4258856E+02   0.0000000E+00
         2        19         8   9.3549042E+02   0.0000000E+00
         2        18         7   9.2839233E+02   0.0000000E+00
         2        17         5   9.1761847E+02   0.0000000E+00
         2        17         6   9.2129425E+02   0.0000000E+00
         2        16         4   9.1052039E+02   0.0000000E+00
         2        15         4   9.0709808E+02   0.0000000E+00
         2        14         3   9.0000000E+02   0.0000000E+00
         3        41        32   1.0990000E+03   0.0000000E+00
         3        40        31   1.0919019E+03   0.0000000E+00
         3        39        30   1.0848038E+03   0.0000000E+00
         3        38        29   1.0777057E+03   0.0000000E+00
         3        37        27   1.0669319E+03   0.0000000E+00
         3        37        28   1.0706077E+03   0.0000000E+00
         3        36        27   1.0635095E+03   0.0000000E+00
         3        35        27   1.0600873E+03   0.0000000E+00
         3        34        27   1.0566649E+03   0.0000000E+00
         3        33        27   1.0532427E+03   0.0000000E+00
         3        32        26   1.0461445E+03   0.0000000E+00
         3        31        26   1.0427223E+03   0.0000000E+00
         3        30        26   1.0393000E+03   0.0000000E+00
         3        29        26   1.0358777E+03   0.0000000E+00
         3        28        26   1.0324554E+03   0.0000000E+00
         3        27        25   1.0253573E+03   0.0000000E+00
         3        26        22   1.0109077E+03   0.0000000E+00
         3        26        23   1.0145834E+03   0.0000000E+00
         3        26        24   1.0182592E+03   0.0000000E+00
         3        25        21   1.0038096E+03   0.0000000E+00
         3        24        19   9.9303564E+02   0.0000000E+00
         3        24        20   9.9671149E+02   0.0000000E+00
         3        23        16   9.7858600E+02   0.0000000E+00
         3        23        17   9.8226178E+02   0.0000000E+00
         3        23        18   9.8593756E+02   0.0000000E+00
         3        22        13   9.6413629E+02   0.0000000E+00
         3        22        14   9.6781207E+02   0.0000000E+00
         3        22        15   9.7148792E+02   0.0000000E+00
         3        21        10   9.4968665E+02   0.0000000E+00
         3        21        11   9.5336243E+02   0.0000000E+00
         3        21        12   9.5703821E+02   0.0000000E+00
         3        20         9   9.4258856E+02   0.0000000E+00
         3        19         8   9.3549042E+02   0.0000000E+00
         3        18         7   9.2839233E+02   0.0000000E+00
         3        17         5   9.1761847E+02   0.0000000E+00
         3        17         6   9.2129425E+02   0.0000000E+00
         3        16         4   9.1052039E+02   0.0000000E+00
         3        15         4   9.0709808E+02   0.0000000E+00
         3        14         3   9.0000000E+02   0.0000000E+00
         3        93        96   1.6720000E+03   0.0000000E+00
         3        92        91   1.6400795E+03   0.0000000E+00
         3        92        92   1.6455740E+03   0.0000000E+00
         3        92        93   1.6510685E+03   0.0000000E+00
         3        92        94   1.6565630E+03   0.0000000E+00
         3        92        95   1.6620575E+03   0.0000000E+00
         3        91        89   1.6246425E+03   0.0000000E+00
         3        91        90   1.6301370E+03   0.0000000E+00
         3        90        89   1.6201946E+03   0.0000000E+00
         3        89        78   1.5553069E+03   0.0000000E+00
         3        89        79   1.5608014E+03   0.0000000E+00
         3        89        80   1.5662959E+03   0.0000000E+00
         3        89        81   1.5717904E+03   0.0000000E+00
         3        89        82   1.5772849E+03   0.0000000E+00
         3        89        83   1.5827794E+03   0.0000000E+00
         3        89        84   1.5882739E+03   0.0000000E+00
         3        89        85   1.5937684E+03   0.0000000E+00
         3        89        86   1.5992631E+03   0.0000000E+00
         3        89        88   1.6102521E+03   0.0000000E+00
         3        88        76   1.5398699E+03   0.0000000E+00
         3        88        77   1.5453644E+03   0.0000000E+00
         3        88        87   1.6003096E+03   0.0000000E+00
         3        87        75   1.5299274E+03   0.0000000E+00
         3        86        74   1.5199850E+03   0.0000000E+00
         3        85        73   1.5100425E+03   0.0000000E+00
         3        84        72   1.5001000E+03   0.0000000E+00
         3        83        71   1.4901576E+03   0.0000000E+00
         3        82        70   1.4802151E+03   0.0000000E+00
         3        81        69   1.4702726E+03   0.0000000E+00
         3        80        68   1.4603301E+03   0.0000000E+00
         3        79        65   1.4393987E+03   0.0000000E+00
         3        79        67   1.4503877E+03   0.0000000E+00
         3        78        64   1.4294562E+03   0.0000000E+00
         3        78        66   1.4404452E+03   0.0000000E+00
         3        66        44   1.2661904E+03   0.0000000E+00
         3        65        44   1.2617424E+03   0.0000000E+00
         3        64        44   1.2572946E+03   0.0000000E+00
         3        63        43   1.2473521E+03   0.0000000E+00
         3        62        42   1.2374095E+03   0.0000000E+00
         3        61        41   1.2274672E+03   0.0000000E+00
         3        60        42   1.2285137E+03   0.0000000E+00
         3        59        41   1.2185713E+03   0.0000000E+00
         3        58        40   1.2086288E+03   0.0000000E+00
         3        57        39   1.1986863E+03   0.0000000E+00
         3        56        38   1.1887439E+03   0.0000000E+00
         3        55        36   1.1733069E+03   0.0000000E+00
         3        55        37   1.1788014E+03   0.0000000E+00
         3        54        34   1.1578699E+03   0.0000000E+00
         3        54        35   1.1633644E+03   0.0000000E+00
         3        53        33   1.1479274E+03   0.0000000E+00
         3        52        34   1.1489740E+03   0.0000000E+00
         3        51        33   1.1390315E+03   0.0000000E+00
         3        50        32   1.1290890E+03   0.0000000E+00
         3        49        30   1.1136521E+03   0.0000000E+00
         3        49        31   1.1191466E+03   0.0000000E+00
         3        48        30   1.1092041E+03   0.0000000E+00
         3        47        30   1.1047561E+03   0.0000000E+00
         3        46        30   1.1003082E+03   0.0000000E+00
         3        46        31   1.1058027E+03   0.0000000E+00
         3        45        32   1.1068494E+03   0.0000000E+00
         3        44        33   1.1078959E+03   0.0000000E+00
         3        43        33   1.1034480E+03   0.0000000E+00
         3        42        33   1.0990000E+03   0.0000000E+00
         1       124       193   2.4994470E+03   2.0000000E+03
         2       131       192   2.5063066E+03   2.0000000E+05
         2       131       193   2.5137974E+03   2.0000000E+05
         2       130       191   2.4967661E+03   2.0000000E+05
         2       130       194   2.5192378E+03   2.0000000E+05
         2       129       190   2.4872253E+03   2.0000000E+05
         2       129       195   2.5246785E+03   2.0000000E+05
         2       128       188   2.4701941E+03   2.0000000E+05
         2       128       189   2.4776848E+03   2.0000000E+05
         2       128       195   2.5226284E+03   2.0000000E+05
         2       127       184   2.4381819E+03   2.0000000E+05
         2       127       185   2.4456724E+03   2.0000000E+05
         2       127       186   2.4531628E+03   2.0000000E+05
         2       127       187   2.4606536E+03   2.0000000E+05
         2       127       194   2.5130876E+03   2.0000000E+05
         2       126       193   2.5035471E+03   2.0000000E+05
         2       125       193   2.5014971E+03   2.0000000E+05
         2       124       170   2.3271633E+03   2.0000000E+05
         2       124       193   2.4994470E+03   2.0000000E+05
         2       123       168   2.3101321E+03   2.0000000E+05
         2       123       169   2.3176228E+03   2.0000000E+05
         2       123       194   2.5048875E+03   2.0000000E+05
         2       122       164   2.2781196E+03   2.0000000E+05
         2       122       165   2.2856104E+03   2.0000000E+05
         2       122       166   2.2931008E+03   2.0000000E+05
         2       122       167   2.3005916E+03   2.0000000E+05
         2       122       193   2.4953469E+03   2.0000000E+05
         2       122       194   2.5028374E+03   2.0000000E+05
         2       121       163   2.2685791E+03   2.0000000E+05
         2       121       192   2.4858062E+03   2.0000000E+05
         2       120       162   2.2590383E+03   2.0000000E+05
         2       120       192   2.4837561E+03   2.1776905E+05
         2       119       158   2.2270261E+03   2.0000000E+05
         2       119       159   2.2345166E+03   2.0000000E+05