# WEL package for  MODFLOW-NWT, generated by Flopy.
       109         1
       101         0 # stress period 0
         1        62       137  -8.8585293E+03
         1        62       137  -8.8585293E+03
         1        69       141  -1.7717059E+04
         1        63       133  -6.2734492E+04
         1        63       133  -6.2734492E+04
         1        65       130  -1.1274491E+04
         2        20       153  -5.6372456E+03
         3         8       148  -1.7717058E+03
         3        11       177  -1.4012582E+04
         3        11       177  -2.3354304E+03
         1        53       128  -2.7300377E+04
         1        41       124  -2.7461439E+04
         1        58       109  -6.4425665E+02
         1        40       126  -1.6509076E+04
         1        47       127  -1.0066511E+04
         3        18       191  -1.0952363E+04
         3        11       177  -2.9796871E+04
         1        43       115  -8.2209082E+03
         1        45       118  -6.5175786E+03
         1        43       115  -7.4659155E+03
         1        43       115  -2.0668516E+04
         1        43       115  -6.8472534E+03
         1        47       127  -3.8218477E+04
         1        54       121  -2.4159625E+02
         1        40       126  -4.7433398E+04
         1        33       144  -1.9408232E+04
         3        30        97  -2.6092395E+04
         1        58       109  -1.3287794E+04
         1        23       155  -6.4425669E+03
         1        54       140  -3.2212834E+03
         1        50       133  -1.6348013E+04
         1        38       145  -3.2776559E+04
         1        38       153  -2.8186228E+03
         3        26       146  -1.3046197E+04
         1        54       133  -1.4093114E+04
         1        47       136  -8.0532086E+02
         3        30       171  -4.5097969E+03
         3        31       176  -7.7310801E+03
         3        25       187  -2.7380908E+04
         3        26       189  -1.6106417E+03
         3        27       199  -1.3207262E+04
         3        27       209  -1.6025885E+04
         3        26       189  -1.6106417E+03
         1        48       122  -2.6102561E+04
         1        43       133  -6.9257593E+03
         1        52       139  -5.2023727E+04
         3        27       202  -3.8655400E+03
         3        27       199  -3.6239438E+03
         3        27       202  -3.8655400E+03
         3        19       186  -7.5700156E+03
         1        34       148  -2.0777277E+04
         1        46       109  -1.2877356E+04
         1        29       152  -1.7233865E+04
         1        52       142  -6.5553117E+04
         3        30        97  -3.6239438E+04
         3        93       157  -1.9692000E+04
         3        99       189  -1.0025000E+04
         1        73       142  -4.1269000E+04
         1        81       143  -2.8642000E+03
         1        83       143  -6.1581000E+04
         3        85       151  -6.5637998E+03
         3        84       155  -9.5473999E+02
         1        95       149  -1.5515000E+04
         1       115       214  -2.0306000E+03
         3       115       214  -4.0933000E+04
         1       117       181  -5.1317002E+03
         1       117       178  -1.0025000E+04
         1       124       184  -4.8692000E+04
         1       125       185  -5.4540000E+04
         3       116       207  -5.1316998E+02
         1       116       220  -7.9912003E+01
         3       116       220  -6.7226001E+03
         1       116       222  -1.9345000E+02
         3       116       222  -8.8064001E+02
         3       125       234  -3.5803000E+04
         3       111       193  -7.0770000E+04
         1        85       195  -1.0980000E+04
         3       111       195  -7.7931000E+04
         3        95       197  -4.7737002E+03
         3       105       194  -8.2466000E+04
         3       111       195  -4.4525000E+04
         1       111       195  -1.0928000E+02
         1       114       184  -4.5385000E+03
         1       114       184  -2.6849000E+04
         1       111       181  -5.0012000E+02
         2       111       181  -2.9694000E+04
         3        83       111  -5.8977002E+03
         2        83       111  -4.2463999E+03
         3       113       220  -3.5803000E+02
         1        84       144  -5.6091000E+04
         1        68       133  -2.6279000E+04
         1        64       135  -3.4609000E+02
         1        63       133  -1.2442000E+04
         1        63       133  -8.0466000E+04
         1        65       131  -5.7472002E+03
         1        65       131  -1.0997000E+04
         3        82       107  -1.2531000E+04
         1        76       145  -2.9041000E+04
         3        76       145  -1.5474000E+04
         1        77       145  -2.5365000E+04
         3        77       145  -1.9031000E+04
        55         0 # stress period 1
         1        62       137  -8.4949199E+03
         1        62       137  -8.4949199E+03
         1        69       141  -1.6989840E+04
         1        63       133  -6.0159477E+04
         1        63       133  -6.0159477E+04
         1        65       130  -1.0811716E+04
         2        20       153  -5.4058579E+03
         3         8       148  -1.6989840E+03
         3        11       177  -1.3437419E+04
         3        11       177  -2.2395698E+03
         1        53       128  -2.6179799E+04
         1        41       124  -2.6334252E+04
         1        58       109  -6.1781238E+02
         1        40       126  -1.5831441E+04
         1        47       127  -9.6533184E+03
         3        18       191  -1.0502810E+04
         3        11       177  -2.8573822E+04
         1        43       115  -7.8834707E+03
         1        45       118  -6.2500566E+03
         1        43       115  -7.1594678E+03
         1        43       115  -1.9820150E+04
         1        43       115  -6.5661992E+03
         1        47       127  -3.6649750E+04
         1        54       121  -2.3167963E+02
         1        40       126  -4.5486434E+04
         1        33       144  -1.8611598E+04
         3        30        97  -2.5021400E+04
         1        58       109  -1.2742380E+04
         1        23       155  -6.1781235E+03
         1        54       140  -3.0890618E+03
         1        50       133  -1.5676988E+04
         1        38       145  -3.1431203E+04
         1        38       153  -2.7029290E+03
         3        26       146  -1.2510700E+04
         1        54       133  -1.3514646E+04
         1        47       136  -7.7226544E+02
         3        30       171  -4.3246865E+03
         3        31       176  -7.4137480E+03
         3        25       187  -2.6257025E+04
         3        26       189  -1.5445309E+03
         3        27       199  -1.2665153E+04
         3        27       209  -1.5368082E+04
         3        26       189  -1.5445309E+03
         1        48       122  -2.5031148E+04
         1        43       133  -6.6414829E+03
         1        52       139  -4.9888348E+04
         3        27       202  -3.7068740E+03
         3        27       199  -3.4751946E+03
         3        27       202  -3.7068740E+03
         3        19       186  -7.2592949E+03
         1        34       148  -1.9924449E+04
         1        46       109  -1.2348790E+04
         1        29       152  -1.6526480E+04
         1        52       142  -6.2862406E+04
         3        30        97  -3.4751945E+04
        55         0 # stress period 2
         1        62       137  -9.1374209E+03
         1        62       137  -9.1374209E+03
         1        69       141  -1.8274842E+04
         1        63       133  -6.4709555E+04
         1        63       133  -6.4709555E+04
         1        65       130  -1.1629445E+04
         2        20       153  -5.8147227E+03
         3         8       148  -1.8274843E+03
         3        11       177  -1.4453739E+04
         3        11       177  -2.4089565E+03
         1        53       128  -2.8159871E+04
         1        41       124  -2.8326006E+04
         1        58       109  -6.6453973E+02
         1        40       126  -1.7028830E+04
         1        47       127  -1.0383434E+04
         3        18       191  -1.1297176E+04
         3        11       177  -3.0734963E+04
         1        43       115  -8.4797256E+03
         1        45       118  -6.7227710E+03
         1        43       115  -7.7009644E+03
         1        43       115  -2.1319219E+04
         1        43       115  -7.0628247E+03
         1        47       127  -3.9421703E+04
         1        54       121  -2.4920239E+02
         1        40       126  -4.8926738E+04
         1        33       144  -2.0019260E+04
         3        30        97  -2.6913859E+04
         1        58       109  -1.3706132E+04
         1        23       155  -6.6453975E+03
         1        54       140  -3.3226987E+03
         1        50       133  -1.6862695E+04
         1        38       145  -3.3808457E+04
         1        38       153  -2.9073613E+03
         3        26       146  -1.3456930E+04
         1        54       133  -1.4536807E+04
         1        47       136  -8.3067468E+02
         3        30       171  -4.6517783E+03
         3        31       176  -7.9744766E+03
         3        25       187  -2.8242938E+04
         3        26       189  -1.6613494E+03
         3        27       199  -1.3623064E+04
         3        27       209  -1.6530426E+04
         3        26       189  -1.6613494E+03
         1        48       122  -2.6924344E+04
         1        43       133  -7.1438022E+03
         1        52       139  -5.3661582E+04
         3        27       202  -3.9872383E+03
         3        27       199  -3.7380359E+03
         3        27       202  -3.9872383E+03
         3        19       186  -7.8083418E+03
         1        34       148  -2.1431406E+04
         1        46       109  -1.3282773E+04
         1        29       152  -1.7776438E+04
         1        52       142  -6.7616914E+04
         3        30        97  -3.7380359E+04
       101         0 # stress period 3
         1        62       137  -1.2992563E+04
         1        62       137  -1.2992563E+04
         1        69       141  -2.5985127E+04
         1        63       133  -9.2010977E+04
         1        63       133  -9.2010977E+04
         1        65       130  -1.6535990E+04
         2        20       153  -8.2679951E+03
         3         8       148  -2.5985127E+03
         3        11       177  -2.0551873E+04
         3        11       177  -3.4253123E+03
         1        53       128  -4.0040719E+04
         1        41       124  -4.0276949E+04
         1        58       109  -9.4491370E+02
         1        40       126  -2.4213414E+04
         1        47       127  -1.4764277E+04
         3        18       191  -1.6063533E+04
         3        11       177  -4.3702258E+04
         1        43       115  -1.2057382E+04
         1        45       118  -9.5591553E+03
         1        43       115  -1.0950056E+04
         1        43       115  -3.0313949E+04
         1        43       115  -1.0042680E+04
         1        47       127  -5.6054000E+04
         1        54       121  -3.5434265E+02
         1        40       126  -6.9569273E+04
         1        33       144  -2.8465525E+04
         3        30        97  -3.8269004E+04
         1        58       109  -1.9488846E+04
         1        23       155  -9.4491377E+03
         1        54       140  -4.7245688E+03
         1        50       133  -2.3977186E+04
         1        38       145  -4.8072484E+04
         1        38       153  -4.1339976E+03
         3        26       146  -1.9134502E+04
         1        54       133  -2.0669988E+04
         1        47       136  -1.1811422E+03
         3        30       171  -6.6143960E+03
         3        31       176  -1.1338965E+04
         3        25       187  -4.0158832E+04
         3        26       189  -2.3622844E+03
         3        27       199  -1.9370730E+04
         3        27       209  -2.3504729E+04
         3        26       189  -2.3622844E+03
         1        48       122  -3.8283914E+04
         1        43       133  -1.0157822E+04
         1        52       139  -7.6301781E+04
         3        27       202  -5.6694824E+03
         3        27       199  -5.3151396E+03
         3        27       202  -5.6694824E+03
         3        19       186  -1.1102736E+04
         1        34       148  -3.0473467E+04
         1        46       109  -1.8886869E+04
         1        29       152  -2.5276441E+04
         1        52       142  -9.6144969E+04
         3        30        97  -5.3151398E+04
         3        93       157  -1.9692000E+04
         3        99       189  -1.0025000E+04
         1        73       142  -4.1269000E+04
         1        81       143  -2.8642000E+03
         1        83       143  -6.1581000E+04
         3        85       151  -6.5637998E+03
         3        84       155  -9.5473999E+02
         1        95       149  -1.5515000E+04
         1       115       214  -2.0306000E+03
         3       115       214  -4.0933000E+04
         1       117       181  -5.1317002E+03
         1       117       178  -1.0025000E+04
         1       124       184  -4.8692000E+04
         1       125       185  -5.4540000E+04
         3       116       207  -5.1316998E+02
         1       116       220  -7.9912003E+01
         3       116       220  -6.7226001E+03
         1       116       222  -1.9345000E+02
         3       116       222  -8.8064001E+02
         3       125       234  -3.5803000E+04
         3       111       193  -7.0770000E+04
         1        85       195  -1.0980000E+04
         3       111       195  -7.7931000E+04
         3        95       197  -4.7737002E+03
         3       105       194  -8.2466000E+04
         3       111       195  -4.4525000E+04
         1       111       195  -1.0928000E+02
         1       114       184  -4.5385000E+03
         1       114       184  -2.6849000E+04
         1       111       181  -5.0012000E+02
         2       111       181  -2.9694000E+04
         3        83       111  -5.8977002E+03
         2        83       111  -4.2463999E+03
         3       113       220  -3.5803000E+02
         1        84       144  -5.6091000E+04
         1        68       133  -2.6279000E+04
         1        64       135  -3.4609000E+02
         1        63       133  -1.2442000E+04
         1        63       133  -8.0466000E+04
         1        65       131  -5.7472002E+03
         1        65       131  -1.0997000E+04
         3        82       107  -1.2531000E+04
         1        76       145  -2.9041000E+04
         3        76       145  -1.5474000E+04
         1        77       145  -2.5365000E+04
         3        77       145  -1.9031000E+04
        55         0 # stress period 4
         1        62       137  -1.4450680E+04
         1        62       137  -1.4450680E+04
         1        69       141  -2.8901359E+04
         1        63       133  -1.0233709E+05
         1        63       133  -1.0233709E+05
         1        65       130  -1.8391773E+04
         2        20       153  -9.1958867E+03
         3         8       148  -2.8901360E+03
         3        11       177  -2.2858348E+04
         3        11       177  -3.8097246E+03
         1        53       128  -4.4534367E+04
         1        41       124  -4.4797105E+04
         1        58       109  -1.0509585E+03
         1        40       126  -2.6930812E+04
         1        47       127  -1.6421227E+04
         3        18       191  -1.7866295E+04
         3        11       177  -4.8606832E+04
         1        43       115  -1.3410545E+04
         1        45       118  -1.0631950E+04
         1        43       115  -1.2178946E+04
         1        43       115  -3.3715992E+04
         1        43       115  -1.1169739E+04
         1        47       127  -6.2344770E+04
         1        54       121  -3.9410944E+02
         1        40       126  -7.7376820E+04
         1        33       144  -3.1660125E+04
         3        30        97  -4.2563820E+04
         1        58       109  -2.1676020E+04
         1        23       155  -1.0509585E+04
         1        54       140  -5.2547925E+03
         1        50       133  -2.6668072E+04
         1        38       145  -5.3467516E+04
         1        38       153  -4.5979434E+03
         3        26       146  -2.1281910E+04
         1        54       133  -2.2989717E+04
         1        47       136  -1.3136981E+03
         3        30       171  -7.3567095E+03
         3        31       176  -1.2611502E+04
         3        25       187  -4.4665738E+04
         3        26       189  -2.6273962E+03
         3        27       199  -2.1544648E+04
         3        27       209  -2.6142594E+04
         3        26       189  -2.6273962E+03
         1        48       122  -4.2580402E+04
         1        43       133  -1.1297804E+04
         1        52       139  -8.4864898E+04
         3        27       202  -6.3057510E+03
         3        27       199  -5.9116416E+03
         3        27       202  -6.3057510E+03
         3        19       186  -1.2348763E+04
         1        34       148  -3.3893410E+04
         1        46       109  -2.1006484E+04
         1        29       152  -2.8113141E+04
         1        52       142  -1.0693503E+05
         3        30        97  -5.9116414E+04
        55         0 # stress period 5
         1        62       137  -1.8050426E+04
         1        62       137  -1.8050426E+04
         1        69       141  -3.6100852E+04
         1        63       133  -1.2782984E+05
         1        63       133  -1.2782984E+05
         1        65       130  -2.2973270E+04
         2        20       153  -1.1486635E+04
         3         8       148  -3.6100852E+03
         3        11       177  -2.8552492E+04
         3        11       177  -4.7587490E+03
         1        53       128  -5.5628133E+04
         1        41       124  -5.5956320E+04
         1        58       109  -1.3127583E+03
         1        40       126  -3.3639430E+04
         1        47       127  -2.0511848E+04
         3        18       191  -2.2316891E+04
         3        11       177  -6.0715070E+04
         1        43       115  -1.6751189E+04
         1        45       118  -1.3280430E+04
         1        43       115  -1.5212792E+04
         1        43       115  -4.2114836E+04
         1        43       115  -1.3952186E+04
         1        47       127  -7.7875203E+04
         1        54       121  -4.9228436E+02
         1        40       126  -9.6651828E+04
         1        33       144  -3.9546844E+04
         3        30        97  -5.3166711E+04
         1        58       109  -2.7075641E+04
         1        23       155  -1.3127583E+04
         1        54       140  -6.5637915E+03
         1        50       133  -3.3311242E+04
         1        38       145  -6.6786578E+04
         1        38       153  -5.7433174E+03
         3        26       146  -2.6583355E+04
         1        54       133  -2.8716588E+04
         1        47       136  -1.6409479E+03
         3        30       171  -9.1893076E+03
         3        31       176  -1.5753100E+04
         3        25       187  -5.5792227E+04
         3        26       189  -3.2818958E+03
         3        27       199  -2.6911545E+04
         3        27       209  -3.2654863E+04
         3        26       189  -3.2818958E+03
         1        48       122  -5.3187422E+04
         1        43       133  -1.4112151E+04
         1        52       139  -1.0600523E+05
         3        27       202  -7.8765498E+03
         3        27       199  -7.3842651E+03
         3        27       202  -7.8765498E+03
         3        19       186  -1.5424910E+04
         1        34       148  -4.2336453E+04
         1        46       109  -2.6239320E+04
         1        29       152  -3.5116285E+04
         1        52       142  -1.3357316E+05
         3        30        97  -7.3842656E+04
        55         0 # stress period 6
         1        62       137  -1.8292664E+04
         1        62       137  -1.8292664E+04
         1        69       141  -3.6585328E+04
         1        63       133  -1.2954532E+05
         1        63       133  -1.2954532E+05
         1        65       130  -2.3281572E+04
         2        20       153  -1.1640786E+04
         3         8       148  -3.6585327E+03
         3        11       177  -2.8935668E+04
         3        11       177  -4.8226113E+03
         1        53       128  -5.6374664E+04
         1        41       124  -5.6707258E+04
         1        58       109  -1.3303756E+03
         1        40       126  -3.4090875E+04
         1        47       127  -2.0787119E+04
         3        18       191  -2.2616385E+04
         3        11       177  -6.1529871E+04
         1        43       115  -1.6975990E+04
         1        45       118  -1.3458654E+04
         1        43       115  -1.5416948E+04
         1        43       115  -4.2680020E+04
         1        43       115  -1.4139425E+04
         1        47       127  -7.8920297E+04
         1        54       121  -4.9889084E+02
         1        40       126  -9.7948898E+04
         1        33       144  -4.0077562E+04
         3        30        97  -5.3880211E+04
         1        58       109  -2.7438996E+04
         1        23       155  -1.3303756E+04
         1        54       140  -6.6518779E+03
         1        50       133  -3.3758281E+04
         1        38       145  -6.7682859E+04
         1        38       153  -5.8203931E+03
         3        26       146  -2.6940105E+04
         1        54       133  -2.9101965E+04
         1        47       136  -1.6629695E+03
         3        30       171  -9.3126289E+03
         3        31       176  -1.5964507E+04
         3        25       187  -5.6540961E+04
         3        26       189  -3.3259390E+03
         3        27       199  -2.7272699E+04
         3        27       209  -3.3093094E+04
         3        26       189  -3.3259390E+03
         1        48       122  -5.3901199E+04
         1        43       133  -1.4301537E+04
         1        52       139  -1.0742783E+05
         3        27       202  -7.9822534E+03
         3        27       199  -7.4833628E+03
         3        27       202  -7.9822534E+03
         3        19       186  -1.5631913E+04
         1        34       148  -4.2904613E+04
         1        46       109  -2.6591453E+04
         1        29       152  -3.5587547E+04
         1        52       142  -1.3536572E+05
         3        30        97  -7.4833625E+04
        55         0 # stress period 7
         1        62       137  -1.7722371E+04
         1        62       137  -1.7722371E+04
         1        69       141  -3.5444742E+04
         1        63       133  -1.2550661E+05
         1        63       133  -1.2550661E+05
         1        65       130  -2.2555744E+04
         2        20       153  -1.1277872E+04
         3         8       148  -3.5444741E+03
         3        11       177  -2.8033568E+04
         3        11       177  -4.6722612E+03
         1        53       128  -5.4617125E+04
         1        41       124  -5.4939348E+04
         1        58       109  -1.2888997E+03
         1        40       126  -3.3028055E+04
         1        47       127  -2.0139057E+04
         3        18       191  -2.1911295E+04
         3        11       177  -5.9611609E+04
         1        43       115  -1.6446746E+04
         1        45       118  -1.3039066E+04
         1        43       115  -1.4936309E+04
         1        43       115  -4.1349426E+04
         1        43       115  -1.3698612E+04
         1        47       127  -7.6459867E+04
         1        54       121  -4.8333737E+02
         1        40       126  -9.4895242E+04
         1        33       144  -3.8828102E+04
         3        30        97  -5.2200438E+04
         1        58       109  -2.6583557E+04
         1        23       155  -1.2888997E+04
         1        54       140  -6.4444985E+03
         1        50       133  -3.2705830E+04
         1        38       145  -6.5572773E+04
         1        38       153  -5.6389360E+03
         3        26       146  -2.6100219E+04
         1        54       133  -2.8194680E+04
         1        47       136  -1.6111246E+03
         3        30       171  -9.0222979E+03
         3        31       176  -1.5466796E+04
         3        25       187  -5.4778234E+04
         3        26       189  -3.2222493E+03
         3        27       199  -2.6422443E+04
         3        27       209  -3.2061379E+04
         3        26       189  -3.2222493E+03
         1        48       122  -5.2220773E+04
         1        43       133  -1.3855672E+04
         1        52       139  -1.0407865E+05
         3        27       202  -7.7333979E+03
         3        27       199  -7.2500605E+03
         3        27       202  -7.7333979E+03
         3        19       186  -1.5144571E+04
         1        34       148  -4.1567016E+04
         1        46       109  -2.5762436E+04
         1        29       152  -3.4478066E+04
         1        52       142  -1.3114555E+05
         3        30        97  -7.2500609E+04
        55         0 # stress period 8
         1        62       137  -1.6946988E+04
         1        62       137  -1.6946988E+04
         1        69       141  -3.3893977E+04
         1        63       133  -1.2001548E+05
         1        63       133  -1.2001548E+05
         1        65       130  -2.1568893E+04
         2        20       153  -1.0784446E+04
         3         8       148  -3.3893975E+03
         3        11       177  -2.6807053E+04
         3        11       177  -4.4678423E+03
         1        53       128  -5.2227535E+04
         1        41       124  -5.2535660E+04
         1        58       109  -1.2325082E+03
         1        40       126  -3.1583023E+04
         1        47       127  -1.9257941E+04
         3        18       191  -2.0952639E+04
         3        11       177  -5.7003504E+04
         1        43       115  -1.5727174E+04
         1        45       118  -1.2468586E+04
         1        43       115  -1.4282820E+04
         1        43       115  -3.9540320E+04
         1        43       115  -1.3099275E+04
         1        47       127  -7.3114625E+04
         1        54       121  -4.6219058E+02
         1        40       126  -9.0743414E+04
         1        33       144  -3.7129309E+04
         3        30        97  -4.9916582E+04
         1        58       109  -2.5420482E+04
         1        23       155  -1.2325082E+04
         1        54       140  -6.1625410E+03
         1        50       133  -3.1274896E+04
         1        38       145  -6.2703855E+04
         1        38       153  -5.3922231E+03
         3        26       146  -2.4958291E+04
         1        54       133  -2.6961117E+04
         1        47       136  -1.5406353E+03
         3        30       171  -8.6275576E+03
         3        31       176  -1.4790099E+04
         3        25       187  -5.2381598E+04
         3        26       189  -3.0812705E+03
         3        27       199  -2.5266418E+04
         3        27       209  -3.0658641E+04
         3        26       189  -3.0812705E+03
         1        48       122  -4.9936027E+04
         1        43       133  -1.3249463E+04
         1        52       139  -9.9525039E+04
         3        27       202  -7.3950493E+03
         3        27       199  -6.9328584E+03
         3        27       202  -7.3950493E+03
         3        19       186  -1.4481972E+04
         1        34       148  -3.9748391E+04
         1        46       109  -2.4635287E+04
         1        29       152  -3.2969594E+04
         1        52       142  -1.2540771E+05
         3        30        97  -6.9328586E+04
        55         0 # stress period 9
         1        62       137  -1.4031870E+04
         1        62       137  -1.4031870E+04
         1        69       141  -2.8063740E+04
         1        63       133  -9.9371156E+04
         1        63       133  -9.9371156E+04
         1        65       130  -1.7858744E+04
         2        20       153  -8.9293721E+03
         3         8       148  -2.8063740E+03
         3        11       177  -2.2195867E+04
         3        11       177  -3.6993113E+03
         1        53       128  -4.3243672E+04
         1        41       124  -4.3498797E+04
         1        58       109  -1.0204996E+03
         1        40       126  -2.6150303E+04
         1        47       127  -1.5945307E+04
         3        18       191  -1.7348494E+04
         3        11       177  -4.7198109E+04
         1        43       115  -1.3021881E+04
         1        45       118  -1.0323815E+04
         1        43       115  -1.1825977E+04
         1        43       115  -3.2738834E+04
         1        43       115  -1.0846019E+04
         1        47       127  -6.0537895E+04
         1        54       121  -3.8268738E+02
         1        40       126  -7.5134289E+04
         1        33       144  -3.0742551E+04
         3        30        97  -4.1330234E+04
         1        58       109  -2.1047805E+04
         1        23       155  -1.0204996E+04
         1        54       140  -5.1024980E+03
         1        50       133  -2.5895178E+04
         1        38       145  -5.1917918E+04
         1        38       153  -4.4646860E+03
         3        26       146  -2.0665117E+04
         1        54       133  -2.2323430E+04
         1        47       136  -1.2756245E+03
         3        30       171  -7.1434976E+03
         3        31       176  -1.2245996E+04
         3        25       187  -4.3371234E+04
         3        26       189  -2.5512490E+03
         3        27       199  -2.0920242E+04