# OC package for  MODFLOW-NWT, generated by Flopy.
HEAD PRINT FORMAT   0
HEAD SAVE UNIT    51
DRAWDOWN PRINT FORMAT   0
COMPACT BUDGET AUX

period 1 step 31 
  SAVE HEAD
  PRINT BUDGET
  SAVE BUDGET

period 2 step 28 
  SAVE HEAD
  PRINT BUDGET
  SAVE BUDGET

period 3 step 31 
  SAVE HEAD
  PRINT BUDGET
  SAVE BUDGET

period 4 step 30 
  SAVE HEAD
  PRINT BUDGET
  SAVE BUDGET

period 5 step 31 
  SAVE HEAD
  PRINT BUDGET
  SAVE BUDGET

period 6 step 30 
  SAVE HEAD
  PRINT BUDGET
  SAVE BUDGET

period 7 step 31 
  SAVE HEAD
  PRINT BUDGET
  SAVE BUDGET

period 8 step 31 
  SAVE HEAD
  PRINT BUDGET
  SAVE BUDGET

period 9 step 30 
  SAVE HEAD
  PRINT BUDGET
  SAVE BUDGET

period 10 step 31 
  SAVE HEAD
  PRINT BUDGET
  SAVE BUDGET

period 11 step 30 
  SAVE HEAD
  PRINT BUDGET
  SAVE BUDGET

period 12 step 31 
  SAVE HEAD
  PRINT BUDGET
  SAVE BUDGET

period 13 step 31 
  SAVE HEAD
  PRINT BUDGET
  SAVE BUDGET

period 14 step 28 
  SAVE HEAD
  PRINT BUDGET
  SAVE BUDGET

period 15 step 31 
  SAVE HEAD
  PRINT BUDGET
  SAVE BUDGET

period 16 step 30 
  SAVE HEAD
  PRINT BUDGET
  SAVE BUDGET

period 17 step 31 
  SAVE HEAD
  PRINT BUDGET
  SAVE BUDGET

period 18 step 30 
  SAVE HEAD
  PRINT BUDGET
  SAVE BUDGET

period 19 step 31 
  SAVE HEAD
  PRINT BUDGET
  SAVE BUDGET

period 20 step 31 
  SAVE HEAD
  PRINT BUDGET
  SAVE BUDGET

period 21 step 30 
  SAVE HEAD
  PRINT BUDGET
  SAVE BUDGET

period 22 step 31 
  SAVE HEAD
  PRINT BUDGET
  SAVE BUDGET

period 23 step 30 
  SAVE HEAD
  PRINT BUDGET
  SAVE BUDGET

period 24 step 31 
  SAVE HEAD
  PRINT BUDGET
  SAVE BUDGET

period 25 step 31 
  SAVE HEAD
  PRINT BUDGET
  SAVE BUDGET

period 26 step 29 
  SAVE HEAD
  PRINT BUDGET
  SAVE BUDGET

period 27 step 31 
  SAVE HEAD
  PRINT BUDGET
  SAVE BUDGET

period 28 step 30 
  SAVE HEAD
  PRINT BUDGET
  SAVE BUDGET

period 29 step 31 
  SAVE HEAD
  PRINT BUDGET
  SAVE BUDGET

period 30 step 30 
  SAVE HEAD
  PRINT BUDGET
  SAVE BUDGET

period 31 step 31 
  SAVE HEAD
  PRINT BUDGET
  SAVE BUDGET

period 32 step 31 
  SAVE HEAD
  PRINT BUDGET
  SAVE BUDGET

period 33 step 30 
  SAVE HEAD
  PRINT BUDGET
  SAVE BUDGET

period 34 step 31 
  SAVE HEAD
  PRINT BUDGET
  SAVE BUDGET

period 35 step 30 
  SAVE HEAD
  PRINT BUDGET
  SAVE BUDGET

period 36 step 31 
  SAVE HEAD
  PRINT BUDGET
  SAVE BUDGET

period 37 step 31 
  SAVE HEAD
  PRINT BUDGET
  SAVE BUDGET

period 38 step 28 
  SAVE HEAD
  PRINT BUDGET
  SAVE BUDGET

period 39 step 31 
  SAVE HEAD
  PRINT BUDGET
  SAVE BUDGET

period 40 step 30 
  SAVE HEAD
  PRINT BUDGET
  SAVE BUDGET

period 41 step 31 
  SAVE HEAD
  PRINT BUDGET
  SAVE BUDGET

period 42 step 30 
  SAVE HEAD
  PRINT BUDGET
  SAVE BUDGET

period 43 step 31 
  SAVE HEAD
  PRINT BUDGET
  SAVE BUDGET

period 44 step 31 
  SAVE HEAD
  PRINT BUDGET
  SAVE BUDGET

period 45 step 30 
  SAVE HEAD
  PRINT BUDGET
  SAVE BUDGET

period 46 step 31 
  SAVE HEAD
  PRINT BUDGET
  SAVE BUDGET

period 47 step 30 
  SAVE HEAD
  PRINT BUDGET
  SAVE BUDGET

period 48 step 31 
  SAVE HEAD
  PRINT BUDGET
  SAVE BUDGET

period 49 step 31 
  SAVE HEAD
  PRINT BUDGET
  SAVE BUDGET

period 50 step 28 
  SAVE HEAD
  PRINT BUDGET
  SAVE BUDGET

period 51 step 31 
  SAVE HEAD
  PRINT BUDGET
  SAVE BUDGET

period 52 step 30 
  SAVE HEAD
  PRINT BUDGET
  SAVE BUDGET

period 53 step 31 
  SAVE HEAD
  PRINT BUDGET
  SAVE BUDGET

period 54 step 30 
  SAVE HEAD
  PRINT BUDGET
  SAVE BUDGET

period 55 step 31 
  SAVE HEAD
  PRINT BUDGET
  SAVE BUDGET

period 56 step 31 
  SAVE HEAD
  PRINT BUDGET
  SAVE BUDGET

period 57 step 30 
  SAVE HEAD
  PRINT BUDGET
  SAVE BUDGET

period 58 step 31 
  SAVE HEAD
  PRINT BUDGET
  SAVE BUDGET

period 59 step 30 
  SAVE HEAD
  PRINT BUDGET
  SAVE BUDGET

period 60 step 31 
  SAVE HEAD
  PRINT BUDGET
  SAVE BUDGET

period 61 step 31 
  SAVE HEAD
  PRINT BUDGET
  SAVE BUDGET

period 62 step 28 
  SAVE HEAD
  PRINT BUDGET
  SAVE BUDGET

period 63 step 31 
  SAVE HEAD
  PRINT BUDGET
  SAVE BUDGET

period 64 step 30 
  SAVE HEAD
  PRINT BUDGET
  SAVE BUDGET

period 65 step 31 
  SAVE HEAD
  PRINT BUDGET
  SAVE BUDGET

period 66 step 30 
  SAVE HEAD
  PRINT BUDGET
  SAVE BUDGET

period 67 step 31 
  SAVE HEAD
  PRINT BUDGET
  SAVE BUDGET

period 68 step 31 
  SAVE HEAD
  PRINT BUDGET
  SAVE BUDGET

period 69 step 30 
  SAVE HEAD
  PRINT BUDGET
  SAVE BUDGET

period 70 step 31 
  SAVE HEAD
  PRINT BUDGET
  SAVE BUDGET

period 71 step 30 
  SAVE HEAD
  PRINT BUDGET
  SAVE BUDGET

period 72 step 31 
  SAVE HEAD
  PRINT BUDGET
  SAVE BUDGET

period 73 step 31 
  SAVE HEAD
  PRINT BUDGET
  SAVE BUDGET

period 74 step 29 
  SAVE HEAD
  PRINT BUDGET
  SAVE BUDGET

period 75 step 31 
  SAVE HEAD
  PRINT BUDGET
  SAVE BUDGET

period 76 step 30 
  SAVE HEAD
  PRINT BUDGET
  SAVE BUDGET

period 77 step 31 
  SAVE HEAD
  PRINT BUDGET
  SAVE BUDGET

period 78 step 30 
  SAVE HEAD
  PRINT BUDGET
  SAVE BUDGET

period 79 step 31 
  SAVE HEAD
  PRINT BUDGET
  SAVE BUDGET

period 80 step 31 
  SAVE HEAD
  PRINT BUDGET
  SAVE BUDGET

period 81 step 30 
  SAVE HEAD
  PRINT BUDGET
  SAVE BUDGET

period 82 step 31 
  SAVE HEAD
  PRINT BUDGET
  SAVE BUDGET

period 83 step 30 
  SAVE HEAD
  PRINT BUDGET
  SAVE BUDGET

period 84 step 31 
  SAVE HEAD
  PRINT BUDGET
  SAVE BUDGET

period 85 step 31 
  SAVE HEAD
  PRINT BUDGET
  SAVE BUDGET

period 86 step 28 
  SAVE HEAD
  PRINT BUDGET
  SAVE BUDGET

period 87 step 31 
  SAVE HEAD
  PRINT BUDGET
  SAVE BUDGET

period 88 step 30 
  SAVE HEAD
  PRINT BUDGET
  SAVE BUDGET

period 89 step 31 
  SAVE HEAD
  PRINT BUDGET
  SAVE BUDGET

period 90 step 30 
  SAVE HEAD
  PRINT BUDGET
  SAVE BUDGET

period 91 step 31 
  SAVE HEAD
  PRINT BUDGET
  SAVE BUDGET

period 92 step 31 
  SAVE HEAD
  PRINT BUDGET
  SAVE BUDGET

period 93 step 30 
  SAVE HEAD
  PRINT BUDGET
  SAVE BUDGET

period 94 step 31 
  SAVE HEAD
  PRINT BUDGET
  SAVE BUDGET

period 95 step 30 
  SAVE HEAD
  PRINT BUDGET
  SAVE BUDGET

period 96 step 31 
  SAVE HEAD
  PRINT BUDGET
  SAVE BUDGET

period 97 step 31 
  SAVE HEAD
  PRINT BUDGET
  SAVE BUDGET

period 98 step 28 
  SAVE HEAD
  PRINT BUDGET
  SAVE BUDGET

period 99 step 31 
  SAVE HEAD
  PRINT BUDGET
  SAVE BUDGET

period 100 step 30 
  SAVE HEAD
  PRINT BUDGET
  SAVE BUDGET

period 101 step 31 
  SAVE HEAD
  PRINT BUDGET
  SAVE BUDGET

period 102 step 30 
  SAVE HEAD
  PRINT BUDGET
  SAVE BUDGET

period 103 step 31 
  SAVE HEAD
  PRINT BUDGET
  SAVE BUDGET

period 104 step 31 
  SAVE HEAD
  PRINT BUDGET
  SAVE BUDGET

period 105 step 30 
  SAVE HEAD
  PRINT BUDGET
  SAVE BUDGET

period 106 step 31 
  SAVE HEAD
  PRINT BUDGET
  SAVE BUDGET

period 107 step 30 
  SAVE HEAD
  PRINT BUDGET
  SAVE BUDGET

period 108 step 31 
  SAVE HEAD
  PRINT BUDGET
  SAVE BUDGET

period 109 step 31 
  SAVE HEAD
  PRINT BUDGET
  SAVE BUDGET

period 110 step 28 
  SAVE HEAD
  PRINT BUDGET
  SAVE BUDGET

period 111 step 31 
  SAVE HEAD
  PRINT BUDGET
  SAVE BUDGET

period 112 step 30 
  SAVE HEAD
  PRINT BUDGET
  SAVE BUDGET

period 113 step 31 
  SAVE HEAD
  PRINT BUDGET
  SAVE BUDGET

period 114 step 30 
  SAVE HEAD
  PRINT BUDGET
  SAVE BUDGET

period 115 step 31 
  SAVE HEAD
  PRINT BUDGET
  SAVE BUDGET

period 116 step 31 
  SAVE HEAD
  PRINT BUDGET
  SAVE BUDGET

period 117 step 30 
  SAVE HEAD
  PRINT BUDGET
  SAVE BUDGET

period 118 step 31 
  SAVE HEAD
  PRINT BUDGET
  SAVE BUDGET

period 119 step 30 
  SAVE HEAD
  PRINT BUDGET
  SAVE BUDGET

period 120 step 31 
  SAVE HEAD
  PRINT BUDGET
  SAVE BUDGET

period 121 step 31 
  SAVE HEAD
  PRINT BUDGET
  SAVE BUDGET

period 122 step 29 
  SAVE HEAD
  PRINT BUDGET
  SAVE BUDGET

period 123 step 31 
  SAVE HEAD
  PRINT BUDGET
  SAVE BUDGET

period 124 step 30 
  SAVE HEAD
  PRINT BUDGET
  SAVE BUDGET

period 125 step 31 
  SAVE HEAD
  PRINT BUDGET
  SAVE BUDGET

period 126 step 30 
  SAVE HEAD
  PRINT BUDGET
  SAVE BUDGET

period 127 step 31 
  SAVE HEAD
  PRINT BUDGET
  SAVE BUDGET

period 128 step 31 
  SAVE HEAD
  PRINT BUDGET
  SAVE BUDGET

period 129 step 30 
  SAVE HEAD
  PRINT BUDGET
  SAVE BUDGET

period 130 step 31 
  SAVE HEAD
  PRINT BUDGET
  SAVE BUDGET

period 131 step 30 
  SAVE HEAD
  PRINT BUDGET
  SAVE BUDGET

period 132 step 31 
  SAVE HEAD
  PRINT BUDGET
  SAVE BUDGET

period 133 step 31 
  SAVE HEAD
  PRINT BUDGET
  SAVE BUDGET

period 134 step 28 
  SAVE HEAD
  PRINT BUDGET
  SAVE BUDGET

period 135 step 31 
  SAVE HEAD
  PRINT BUDGET
  SAVE BUDGET

period 136 step 30 
  SAVE HEAD
  PRINT BUDGET
  SAVE BUDGET

period 137 step 31 
  SAVE HEAD
  PRINT BUDGET
  SAVE BUDGET

period 138 step 30 
  SAVE HEAD
  PRINT BUDGET
  SAVE BUDGET

period 139 step 31 
  SAVE HEAD
  PRINT BUDGET
  SAVE BUDGET

period 140 step 31 
  SAVE HEAD
  PRINT BUDGET
  SAVE BUDGET

period 141 step 30 
  SAVE HEAD
  PRINT BUDGET
  SAVE BUDGET

period 142 step 31 
  SAVE HEAD
  PRINT BUDGET
  SAVE BUDGET

period 143 step 30 
  SAVE HEAD
  PRINT BUDGET
  SAVE BUDGET

period 144 step 31 
  SAVE HEAD
  PRINT BUDGET
  SAVE BUDGET

period 145 step 31 
  SAVE HEAD
  PRINT BUDGET
  SAVE BUDGET

period 146 step 28 
  SAVE HEAD
  PRINT BUDGET
  SAVE BUDGET

period 147 step 31 
  SAVE HEAD
  PRINT BUDGET
  SAVE BUDGET

period 148 step 30 
  SAVE HEAD
  PRINT BUDGET
  SAVE BUDGET

period 149 step 31 
  SAVE HEAD
  PRINT BUDGET
  SAVE BUDGET

period 150 step 30 
  SAVE HEAD
  PRINT BUDGET
  SAVE BUDGET

period 151 step 31 
  SAVE HEAD
  PRINT BUDGET
  SAVE BUDGET

period 152 step 31 
  SAVE HEAD
  PRINT BUDGET
  SAVE BUDGET

period 153 step 30 
  SAVE HEAD
  PRINT BUDGET
  SAVE BUDGET

period 154 step 31 
  SAVE HEAD
  PRINT BUDGET
  SAVE BUDGET

period 155 step 30 
  SAVE HEAD
  PRINT BUDGET
  SAVE BUDGET

period 156 step 31 
  SAVE HEAD
  PRINT BUDGET
  SAVE BUDGET

period 157 step 31 
  SAVE HEAD
  PRINT BUDGET
  SAVE BUDGET

period 158 step 28 
  SAVE HEAD
  PRINT BUDGET
  SAVE BUDGET

period 159 step 31 
  SAVE HEAD
  PRINT BUDGET
  SAVE BUDGET

period 160 step 30 
  SAVE HEAD
  PRINT BUDGET
  SAVE BUDGET

period 161 step 31 
  SAVE HEAD
  PRINT BUDGET
  SAVE BUDGET

period 162 step 30 
  SAVE HEAD
  PRINT BUDGET
  SAVE BUDGET

period 163 step 31 
  SAVE HEAD
  PRINT BUDGET
  SAVE BUDGET

period 164 step 31 
  SAVE HEAD
  PRINT BUDGET
  SAVE BUDGET

period 165 step 30 
  SAVE HEAD
  PRINT BUDGET
  SAVE BUDGET

period 166 step 31 
  SAVE HEAD
  PRINT BUDGET
  SAVE BUDGET

period 167 step 30 
  SAVE HEAD
  PRINT BUDGET
  SAVE BUDGET

period 168 step 31 
  SAVE HEAD
  PRINT BUDGET
  SAVE BUDGET

period 169 step 31 
  SAVE HEAD
  PRINT BUDGET
  SAVE BUDGET

period 170 step 29 
  SAVE HEAD
  PRINT BUDGET
  SAVE BUDGET

period 171 step 31 
  SAVE HEAD
  PRINT BUDGET
  SAVE BUDGET

period 172 step 30 
  SAVE HEAD
  PRINT BUDGET
  SAVE BUDGET

period 173 step 31 
  SAVE HEAD
  PRINT BUDGET
  SAVE BUDGET

period 174 step 30 
  SAVE HEAD
  PRINT BUDGET
  SAVE BUDGET

period 175 step 31 
  SAVE HEAD
  PRINT BUDGET
  SAVE BUDGET

period 176 step 31 
  SAVE HEAD
  PRINT BUDGET
  SAVE BUDGET

period 177 step 30 
  SAVE HEAD
  PRINT BUDGET
  SAVE BUDGET

period 178 step 31 
  SAVE HEAD
  PRINT BUDGET
  SAVE BUDGET

period 179 step 30 
  SAVE HEAD
  PRINT BUDGET
  SAVE BUDGET

period 180 step 31 
  SAVE HEAD
  PRINT BUDGET
  SAVE BUDGET

period 181 step 31 
  SAVE HEAD
  PRINT BUDGET
  SAVE BUDGET

period 182 step 28 
  SAVE HEAD
  PRINT BUDGET
  SAVE BUDGET

period 183 step 31 
  SAVE HEAD
  PRINT BUDGET
  SAVE BUDGET

period 184 step 30 
  SAVE HEAD
  PRINT BUDGET
  SAVE BUDGET

period 185 step 31 
  SAVE HEAD
  PRINT BUDGET
  SAVE BUDGET

period 186 step 30 
  SAVE HEAD
  PRINT BUDGET
  SAVE BUDGET

period 187 step 31 
  SAVE HEAD
  PRINT BUDGET
  SAVE BUDGET

period 188 step 31 
  SAVE HEAD
  PRINT BUDGET
  SAVE BUDGET

period 189 step 30 
  SAVE HEAD
  PRINT BUDGET
  SAVE BUDGET

period 190 step 31 
  SAVE HEAD
  PRINT BUDGET
  SAVE BUDGET

period 191 step 30 
  SAVE HEAD
  PRINT BUDGET
  SAVE BUDGET

period 192 step 31 
  SAVE HEAD
  PRINT BUDGET
  SAVE BUDGET

period 193 step 31 
  SAVE HEAD
  PRINT BUDGET
  SAVE BUDGET

period 194 step 28 
  SAVE HEAD
  PRINT BUDGET
  SAVE BUDGET

period 195 step 31 
  SAVE HEAD
  PRINT BUDGET
  SAVE BUDGET

period 196 step 30 
  SAVE HEAD
  PRINT BUDGET
  SAVE BUDGET

period 197 step 31 
  SAVE HEAD
  PRINT BUDGET
  SAVE BUDGET

period 198 step 30 
  SAVE HEAD
  PRINT BUDGET
  SAVE BUDGET

period 199 step 31 
  SAVE HEAD
  PRINT BUDGET
  SAVE BUDGET

period 200 step 31 
  SAVE HEAD
  PRINT BUDGET
  SAVE BUDGET

period 201 step 30 
  SAVE HEAD
  PRINT BUDGET
  SAVE BUDGET

period 202 step 31 
  SAVE HEAD
  PRINT BUDGET
  SAVE BUDGET

period 203 step 30 
  SAVE HEAD
  PRINT BUDGET
  SAVE BUDGET

period 204 step 31 
  SAVE HEAD
  PRINT BUDGET
  SAVE BUDGET

period 205 step 31 
  SAVE HEAD
  PRINT BUDGET
  SAVE BUDGET

period 206 step 28 
  SAVE HEAD
  PRINT BUDGET
  SAVE BUDGET

period 207 step 31 
  SAVE HEAD
  PRINT BUDGET
  SAVE BUDGET

period 208 step 30 
  SAVE HEAD
  PRINT BUDGET
  SAVE BUDGET

period 209 step 31 
  SAVE HEAD
  PRINT BUDGET
  SAVE BUDGET

period 210 step 30 
  SAVE HEAD
  PRINT BUDGET
  SAVE BUDGET

period 211 step 31 
  SAVE HEAD
  PRINT BUDGET
  SAVE BUDGET

period 212 step 31 
  SAVE HEAD
  PRINT BUDGET
  SAVE BUDGET

period 213 step 30 
  SAVE HEAD
  PRINT BUDGET
  SAVE BUDGET

period 214 step 31 
  SAVE HEAD
  PRINT BUDGET
  SAVE BUDGET

period 215 step 30 
  SAVE HEAD
  PRINT BUDGET
  SAVE BUDGET

period 216 step 31 
  SAVE HEAD
  PRINT BUDGET
  SAVE BUDGET

period 217 step 31 
  SAVE HEAD
  PRINT BUDGET
  SAVE BUDGET

period 218 step 29 
  SAVE HEAD
  PRINT BUDGET
  SAVE BUDGET

period 219 step 31 
  SAVE HEAD
  PRINT BUDGET
  SAVE BUDGET

period 220 step 30 
  SAVE HEAD
  PRINT BUDGET
  SAVE BUDGET

period 221 step 31 
  SAVE HEAD
  PRINT BUDGET
  SAVE BUDGET

period 222 step 30 
  SAVE HEAD
  PRINT BUDGET
  SAVE BUDGET

period 223 step 31 
  SAVE HEAD
  PRINT BUDGET
  SAVE BUDGET

period 224 step 31 
  SAVE HEAD
  PRINT BUDGET
  SAVE BUDGET

period 225 step 30 
  SAVE HEAD
  PRINT BUDGET
  SAVE BUDGET

period 226 step 31 
  SAVE HEAD
  PRINT BUDGET
  SAVE BUDGET

period 227 step 30 
  SAVE HEAD
  PRINT BUDGET
  SAVE BUDGET

period 228 step 31 
  SAVE HEAD
  PRINT BUDGET
  SAVE BUDGET

period 229 step 31 
  SAVE HEAD
  PRINT BUDGET
  SAVE BUDGET

period 230 step 28 
  SAVE HEAD
  PRINT BUDGET
  SAVE BUDGET

period 231 step 31 
  SAVE HEAD
  PRINT BUDGET
  SAVE BUDGET

period 232 step 30 
  SAVE HEAD
  PRINT BUDGET
  SAVE BUDGET

period 233 step 31 
  SAVE HEAD
  PRINT BUDGET
  SAVE BUDGET

period 234 step 30 
  SAVE HEAD
  PRINT BUDGET
  SAVE BUDGET

period 235 step 31 
  SAVE HEAD
  PRINT BUDGET
  SAVE BUDGET

period 236 step 31 
  SAVE HEAD
  PRINT BUDGET
  SAVE BUDGET

period 237 step 30 
  SAVE HEAD
  PRINT BUDGET
  SAVE BUDGET

period 238 step 31 
  SAVE HEAD
  PRINT BUDGET
  SAVE BUDGET

period 239 step 30 
  SAVE HEAD
  PRINT BUDGET
  SAVE BUDGET

period 240 step 31 
  SAVE HEAD
  PRINT BUDGET
  SAVE BUDGET

period 241 step 31 
  SAVE HEAD
  PRINT BUDGET
  SAVE BUDGET

period 242 step 28 
  SAVE HEAD
  PRINT BUDGET
  SAVE BUDGET

period 243 step 31 
  SAVE HEAD
  PRINT BUDGET
  SAVE BUDGET

period 244 step 30 
  SAVE HEAD
  PRINT BUDGET
  SAVE BUDGET

period 245 step 31 
  SAVE HEAD
  PRINT BUDGET
  SAVE BUDGET

period 246 step 30 
  SAVE HEAD
  PRINT BUDGET
  SAVE BUDGET

period 247 step 31 
  SAVE HEAD
  PRINT BUDGET
  SAVE BUDGET

period 248 step 31 
  SAVE HEAD
  PRINT BUDGET
  SAVE BUDGET

period 249 step 30 
  SAVE HEAD
  PRINT BUDGET
  SAVE BUDGET

period 250 step 31 
  SAVE HEAD
  PRINT BUDGET
  SAVE BUDGET

period 251 step 30 
  SAVE HEAD
  PRINT BUDGET
  SAVE BUDGET

period 252 step 31 
  SAVE HEAD
  PRINT BUDGET
  SAVE BUDGET

