 ZONEBUDGET version 3.01                 
 Program to compute a flow budget for subregions of a model using
 budget data from MODFLOW, the USGS Modular Ground-Water Flow Model.
 
  The cell-by-cell budget file is:
 yucaipa.UPW.cbc                                                                 
  Single precision budget file
          4 layers       134 rows       237 columns
 
                                                                                 
 
 0  zones.
