# HOB package for  MODFLOW-NWT, generated by Flopy.
     20360      3055         3        53     -9999
         1
HO_0                    4        128        188        -18                  0.0    -0.2212    -0.2838     0.0000   # DATASET 3 - Observation 1
         1                                                                                                         # DATASET 5 - Observation 1
HO_0.1                618                  9.0  2445.8384                                                          # DATASET 6 - Observation 1.1
HO_0.2                623                 10.0  2446.4883                                                          # DATASET 6 - Observation 1.2
HO_0.3                634                 27.0  2447.7883                                                          # DATASET 6 - Observation 1.3
HO_0.4                640                 25.0  2449.8884                                                          # DATASET 6 - Observation 1.4
HO_0.5                646                 23.0  2449.3884                                                          # DATASET 6 - Observation 1.5
HO_0.6                653                 14.0  2451.3884                                                          # DATASET 6 - Observation 1.6
HO_0.7                659                  5.0  2450.7883                                                          # DATASET 6 - Observation 1.7
HO_0.8                664                 22.0  2451.9683                                                          # DATASET 6 - Observation 1.8
HO_0.9                671                  3.0  2451.3884                                                          # DATASET 6 - Observation 1.9
HO_0.10               676                 28.0  2453.0884                                                          # DATASET 6 - Observation 1.10
HO_0.11               683                 19.0  2451.2883                                                          # DATASET 6 - Observation 1.11
HO_0.12               688                 20.0  2452.8884                                                          # DATASET 6 - Observation 1.12
HO_0.13               731                  6.0  2452.3884                                                          # DATASET 6 - Observation 1.13
HO_0.14               736                 28.0  2453.3884                                                          # DATASET 6 - Observation 1.14
HO_0.15               743                  3.0  2452.5884                                                          # DATASET 6 - Observation 1.15
HO_0.16               748                 22.0  2453.6882                                                          # DATASET 6 - Observation 1.16
HO_0.17               755                  3.0  2452.8884                                                          # DATASET 6 - Observation 1.17
HO_0.18               761                  3.0  2453.7883                                                          # DATASET 6 - Observation 1.18
HO_2                    4        125        193        -24                  0.0    -0.0970     0.0221     0.0000   # DATASET 3 - Observation 2
         1                                                                                                         # DATASET 5 - Observation 2
HO_2.1                640                 25.0  2548.7988                                                          # DATASET 6 - Observation 2.1
HO_2.2                646                 23.0  2548.5986                                                          # DATASET 6 - Observation 2.2
HO_2.3                653                 14.0  2548.4988                                                          # DATASET 6 - Observation 2.3
HO_2.4                659                  5.0  2547.4988                                                          # DATASET 6 - Observation 2.4
HO_2.5                664                 22.0  2547.1987                                                          # DATASET 6 - Observation 2.5
HO_2.6                671                  3.0  2546.5986                                                          # DATASET 6 - Observation 2.6
HO_2.7                676                 28.0  2546.6987                                                          # DATASET 6 - Observation 2.7
HO_2.8                694                 25.0  2544.5986                                                          # DATASET 6 - Observation 2.8
HO_2.9                700                 25.0  2545.3987                                                          # DATASET 6 - Observation 2.9
HO_2.10               707                 28.0  2545.1987                                                          # DATASET 6 - Observation 2.10
HO_2.11               719                  6.0  2544.1987                                                          # DATASET 6 - Observation 2.11
HO_2.12               725                  1.0  2544.2988                                                          # DATASET 6 - Observation 2.12
HO_2.13               731                  5.0  2543.6987                                                          # DATASET 6 - Observation 2.13
HO_2.14               736                 29.0  2544.4988                                                          # DATASET 6 - Observation 2.14
HO_2.15               743                  3.0  2544.3987                                                          # DATASET 6 - Observation 2.15
HO_2.16               748                 22.0  2544.7988                                                          # DATASET 6 - Observation 2.16
HO_2.17               755                  3.0  2545.5986                                                          # DATASET 6 - Observation 2.17
HO_2.18               761                  3.0  2547.1987                                                          # DATASET 6 - Observation 2.18
HO_2.19               766                 28.0  2547.4988                                                          # DATASET 6 - Observation 2.19
HO_2.20               773                 16.0  2549.5986                                                          # DATASET 6 - Observation 2.20
HO_2.21               779                 16.0  2550.5986                                                          # DATASET 6 - Observation 2.21
HO_2.22               785                 22.0  2552.1987                                                          # DATASET 6 - Observation 2.22
HO_2.23               797                  7.0  2553.6987                                                          # DATASET 6 - Observation 2.23
HO_2.24               804                  3.0  2554.5886                                                          # DATASET 6 - Observation 2.24
HO_3                    2        124        185        623                 11.0    -0.1220     0.3190  2476.6948   # DATASET 3 - Observation 3
HO_4                    2        116        182        -25                  0.0     0.2814    -0.4475     0.0000   # DATASET 3 - Observation 4
         1                                                                                                         # DATASET 5 - Observation 4
HO_4.1                618                  9.0  2325.5947                                                          # DATASET 6 - Observation 4.1
HO_4.2                623                 10.0  2324.3948                                                          # DATASET 6 - Observation 4.2
HO_4.3                628                 26.0  2334.8948                                                          # DATASET 6 - Observation 4.3
HO_4.4                634                 27.0  2320.2947                                                          # DATASET 6 - Observation 4.4
HO_4.5                640                 25.0  2334.6948                                                          # DATASET 6 - Observation 4.5
HO_4.6                646                 23.0  2318.7947                                                          # DATASET 6 - Observation 4.6
HO_4.7                653                 14.0  2333.8948                                                          # DATASET 6 - Observation 4.7
HO_4.8                659                  5.0  2324.9946                                                          # DATASET 6 - Observation 4.8
HO_4.9                671                  3.0  2319.0947                                                          # DATASET 6 - Observation 4.9
HO_4.10               676                 28.0  2331.5947                                                          # DATASET 6 - Observation 4.10
HO_4.11               683                 17.0  2341.1948                                                          # DATASET 6 - Observation 4.11
HO_4.12               688                 20.0  2347.0947                                                          # DATASET 6 - Observation 4.12
HO_4.13               694                 25.0  2350.6948                                                          # DATASET 6 - Observation 4.13
HO_4.14               700                 26.0  2355.3948                                                          # DATASET 6 - Observation 4.14
HO_4.15               707                 28.0  2316.6948                                                          # DATASET 6 - Observation 4.15
HO_4.16               713                 16.0  2350.7947                                                          # DATASET 6 - Observation 4.16
HO_4.17               736                 29.0  2331.2947                                                          # DATASET 6 - Observation 4.17
HO_4.18               743                  3.0  2356.5947                                                          # DATASET 6 - Observation 4.18
HO_4.19               748                 22.0  2368.0947                                                          # DATASET 6 - Observation 4.19
HO_4.20               755                  3.0  2376.9946                                                          # DATASET 6 - Observation 4.20
HO_4.21               761                  3.0  2390.4946                                                          # DATASET 6 - Observation 4.21
HO_4.22               766                 27.0  2395.3948                                                          # DATASET 6 - Observation 4.22
HO_4.23               773                 15.0  2405.8948                                                          # DATASET 6 - Observation 4.23
HO_4.24               779                 14.0  2408.0947                                                          # DATASET 6 - Observation 4.24
HO_4.25               785                 22.0  2410.6448                                                          # DATASET 6 - Observation 4.25
HO_5                    2        116        181        -19                  0.0     0.2814     0.2102     0.0000   # DATASET 3 - Observation 5
         1                                                                                                         # DATASET 5 - Observation 5
HO_5.1                683                 17.0  2437.9900                                                          # DATASET 6 - Observation 5.1
HO_5.2                688                 20.0  2450.4900                                                          # DATASET 6 - Observation 5.2
HO_5.3                694                 28.0  2422.3901                                                          # DATASET 6 - Observation 5.3
HO_5.4                700                 26.0  2443.7900                                                          # DATASET 6 - Observation 5.4
HO_5.5                707                 28.0  2416.4900                                                          # DATASET 6 - Observation 5.5
HO_5.6                717                 16.0  2440.9900                                                          # DATASET 6 - Observation 5.6
HO_5.7                736                 29.0  2398.4900                                                          # DATASET 6 - Observation 5.7
HO_5.8                743                  3.0  2407.8901                                                          # DATASET 6 - Observation 5.8
HO_5.9                748                 22.0  2414.0901                                                          # DATASET 6 - Observation 5.9
HO_5.10               755                  3.0  2420.8901                                                          # DATASET 6 - Observation 5.10
HO_5.11               761                  3.0  2428.2900                                                          # DATASET 6 - Observation 5.11
HO_5.12               766                 27.0  2433.0901                                                          # DATASET 6 - Observation 5.12
HO_5.13               773                 16.0  2437.2900                                                          # DATASET 6 - Observation 5.13
HO_5.14               779                 14.0  2437.6899                                                          # DATASET 6 - Observation 5.14
HO_5.15               785                 22.0  2438.9900                                                          # DATASET 6 - Observation 5.15
HO_5.16               792                  4.0  2438.9900                                                          # DATASET 6 - Observation 5.16
HO_5.17               804                  3.0  2420.4600                                                          # DATASET 6 - Observation 5.17
HO_5.18               809                  6.0  2420.3601                                                          # DATASET 6 - Observation 5.18
HO_5.19               815                  3.0  2419.4800                                                          # DATASET 6 - Observation 5.19
HO_6                    2        114        175        -32                  0.0     0.0230     0.0487     0.0000   # DATASET 3 - Observation 6
         1                                                                                                         # DATASET 5 - Observation 6
HO_6.1                618                  9.0  2344.3730                                                          # DATASET 6 - Observation 6.1
HO_6.2                628                 26.0  2345.8730                                                          # DATASET 6 - Observation 6.2
HO_6.3                634                 27.0  2344.2729                                                          # DATASET 6 - Observation 6.3
HO_6.4                640                 25.0  2345.3730                                                          # DATASET 6 - Observation 6.4
HO_6.5                646                 23.0  2344.0730                                                          # DATASET 6 - Observation 6.5
HO_6.6                653                 14.0  2345.1731                                                          # DATASET 6 - Observation 6.6
HO_6.7                659                  5.0  2343.3730                                                          # DATASET 6 - Observation 6.7
HO_6.8                664                 22.0  2343.8730                                                          # DATASET 6 - Observation 6.8
HO_6.9                671                  3.0  2341.6731                                                          # DATASET 6 - Observation 6.9
HO_6.10               683                 17.0  2342.0730                                                          # DATASET 6 - Observation 6.10
HO_6.11               688                 19.0  2343.2729                                                          # DATASET 6 - Observation 6.11
HO_6.12               694                 25.0  2342.1731                                                          # DATASET 6 - Observation 6.12
HO_6.13               700                 26.0  2343.9731                                                          # DATASET 6 - Observation 6.13
HO_6.14               707                 28.0  2344.7729                                                          # DATASET 6 - Observation 6.14
HO_6.15               713                 16.0  2346.8730                                                          # DATASET 6 - Observation 6.15
HO_6.16               719                  6.0  2348.9731                                                          # DATASET 6 - Observation 6.16
HO_6.17               725                  1.0  2350.9731                                                          # DATASET 6 - Observation 6.17
HO_6.18               731                  5.0  2351.7729                                                          # DATASET 6 - Observation 6.18
HO_6.19               736                 28.0  2353.3730                                                          # DATASET 6 - Observation 6.19
HO_6.20               743                  3.0  2353.2729                                                          # DATASET 6 - Observation 6.20
HO_6.21               748                 22.0  2353.9731                                                          # DATASET 6 - Observation 6.21
HO_6.22               755                  3.0  2353.2729                                                          # DATASET 6 - Observation 6.22
HO_6.23               761                  3.0  2353.9731                                                          # DATASET 6 - Observation 6.23
HO_6.24               766                 27.0  2352.9731                                                          # DATASET 6 - Observation 6.24
HO_6.25               773                 19.0  2353.8730                                                          # DATASET 6 - Observation 6.25
HO_6.26               779                 14.0  2352.9731                                                          # DATASET 6 - Observation 6.26
HO_6.27               785                 22.0  2353.5730                                                          # DATASET 6 - Observation 6.27
HO_6.28               792                  4.0  2351.8730                                                          # DATASET 6 - Observation 6.28
HO_6.29               797                  6.0  2351.7729                                                          # DATASET 6 - Observation 6.29
HO_6.30               804                  3.0  2350.8030                                                          # DATASET 6 - Observation 6.30
HO_6.31               809                  6.0  2350.2729                                                          # DATASET 6 - Observation 6.31
HO_6.32               815                  2.0  2347.3530                                                          # DATASET 6 - Observation 6.32
HO_7                   -2        114        175        -66                  0.0     0.0230    -0.2935     0.0000   # DATASET 3 - Observation 7
    3    0.2278    4    0.7722  # DATASET 4 - Observation 7
         1                                                                                                         # DATASET 5 - Observation 7
HO_7.1                 76                 13.0  2423.5396                                                          # DATASET 6 - Observation 7.1
HO_7.2                 88                  6.0  2423.8396                                                          # DATASET 6 - Observation 7.2
HO_7.3                 95                 22.0  2414.2197                                                          # DATASET 6 - Observation 7.3
HO_7.4                106                 25.0  2398.5396                                                          # DATASET 6 - Observation 7.4
HO_7.5                118                 25.0  2416.0396                                                          # DATASET 6 - Observation 7.5
HO_7.6                124                 28.0  2418.4397                                                          # DATASET 6 - Observation 7.6
HO_7.7                166                 21.0  2408.8396                                                          # DATASET 6 - Observation 7.7
HO_7.8                179                 13.0  2412.8896                                                          # DATASET 6 - Observation 7.8
HO_7.9                183                 22.0  2418.8896                                                          # DATASET 6 - Observation 7.9
HO_7.10               190                 25.0  2406.9097                                                          # DATASET 6 - Observation 7.10
HO_7.11               196                 14.0  2406.1897                                                          # DATASET 6 - Observation 7.11
HO_7.12               203                 14.0  2412.2698                                                          # DATASET 6 - Observation 7.12
HO_7.13               207                 26.0  2400.9897                                                          # DATASET 6 - Observation 7.13
HO_7.14               214                  7.0  2410.3196                                                          # DATASET 6 - Observation 7.14
HO_7.15               220                 22.0  2411.8896                                                          # DATASET 6 - Observation 7.15
HO_7.16               227                 18.0  2409.8696                                                          # DATASET 6 - Observation 7.16
HO_7.17               232                 21.0  2410.6396                                                          # DATASET 6 - Observation 7.17
HO_7.18               239                 13.0  2408.9397                                                          # DATASET 6 - Observation 7.18
HO_7.19               244                  5.0  2410.3396                                                          # DATASET 6 - Observation 7.19
HO_7.20               263                 20.0  2407.1396                                                          # DATASET 6 - Observation 7.20
HO_7.21               268                 13.0  2411.7397                                                          # DATASET 6 - Observation 7.21
HO_7.22               280                 13.0  2406.8396                                                          # DATASET 6 - Observation 7.22
HO_7.23               286                 14.0  2402.2397                                                          # DATASET 6 - Observation 7.23
HO_7.24               292                  0.0  2406.3396                                                          # DATASET 6 - Observation 7.24
HO_7.25               298                 14.0  2406.5396                                                          # DATASET 6 - Observation 7.25
HO_7.26               304                 23.0  2407.9397                                                          # DATASET 6 - Observation 7.26
HO_7.27               323                  5.0  2407.9397                                                          # DATASET 6 - Observation 7.27
HO_7.28               340                 15.0  2414.0396                                                          # DATASET 6 - Observation 7.28
HO_7.29               352                 21.0  2416.9397                                                          # DATASET 6 - Observation 7.29
HO_7.30               364                 27.0  2414.5396                                                          # DATASET 6 - Observation 7.30
HO_7.31               369                 22.0  2421.0396                                                          # DATASET 6 - Observation 7.31
HO_7.32               388                 22.0  2430.6396                                                          # DATASET 6 - Observation 7.32
HO_7.33               394                 24.0  2424.8396                                                          # DATASET 6 - Observation 7.33
HO_7.34               400                 21.0  2433.0396                                                          # DATASET 6 - Observation 7.34
HO_7.35               406                 20.0  2422.6396                                                          # DATASET 6 - Observation 7.35
HO_7.36               412                 13.0  2434.5396                                                          # DATASET 6 - Observation 7.36
HO_7.37               472                  7.0  2409.4497                                                          # DATASET 6 - Observation 7.37
HO_7.38               474                 17.0  2407.6697                                                          # DATASET 6 - Observation 7.38
HO_7.39               479                 16.0  2408.1897                                                          # DATASET 6 - Observation 7.39
HO_7.40               488                 12.0  2407.4897                                                          # DATASET 6 - Observation 7.40
HO_7.41               498                 28.0  2406.0396                                                          # DATASET 6 - Observation 7.41
HO_7.42               522                 24.0  2401.4097                                                          # DATASET 6 - Observation 7.42
HO_7.43               527                 26.0  2401.5396                                                          # DATASET 6 - Observation 7.43
HO_7.44               539                 25.0  2399.0696                                                          # DATASET 6 - Observation 7.44
HO_7.45               556                 12.0  2396.2097                                                          # DATASET 6 - Observation 7.45
HO_7.46               562                 17.0  2396.9998                                                          # DATASET 6 - Observation 7.46
HO_7.47               568                 19.0  2399.2397                                                          # DATASET 6 - Observation 7.47
HO_7.48               586                 25.0  2400.2397                                                          # DATASET 6 - Observation 7.48
HO_7.49               592                 23.0  2401.1497                                                          # DATASET 6 - Observation 7.49
HO_7.50               598                  9.0  2401.1697                                                          # DATASET 6 - Observation 7.50
HO_7.51               604                 17.0  2402.5098                                                          # DATASET 6 - Observation 7.51
HO_7.52               610                  2.0  2400.9998                                                          # DATASET 6 - Observation 7.52
HO_7.53               616                 16.0  2402.8096                                                          # DATASET 6 - Observation 7.53
HO_7.54               622                 20.0  2404.7896                                                          # DATASET 6 - Observation 7.54
HO_7.55               628                 11.0  2405.3496                                                          # DATASET 6 - Observation 7.55
HO_7.56               640                 12.0  2406.1997                                                          # DATASET 6 - Observation 7.56
HO_7.57               646                 24.0  2404.1997                                                          # DATASET 6 - Observation 7.57
HO_7.58               658                 24.0  2405.2598                                                          # DATASET 6 - Observation 7.58
HO_7.59               664                 10.0  2405.8896                                                          # DATASET 6 - Observation 7.59
HO_7.60               676                 23.0  2401.9998                                                          # DATASET 6 - Observation 7.60
HO_7.61               688                 21.0  2402.5696                                                          # DATASET 6 - Observation 7.61
HO_7.62               694                 17.0  2403.3396                                                          # DATASET 6 - Observation 7.62
HO_7.63               700                 18.0  2406.3196                                                          # DATASET 6 - Observation 7.63
HO_7.64               706                 24.0  2403.5098                                                          # DATASET 6 - Observation 7.64
HO_7.65               724                 19.0  2406.9397                                                          # DATASET 6 - Observation 7.65
HO_7.66               731                  1.0  2393.1697                                                          # DATASET 6 - Observation 7.66
HO_8                    3        110        159        -48                  0.0     0.3250     0.4754     0.0000   # DATASET 3 - Observation 8
         1                                                                                                         # DATASET 5 - Observation 8
HO_8.1                 10                  6.0  2302.9946                                                          # DATASET 6 - Observation 8.1
HO_8.2                208                  6.0  2300.4946                                                          # DATASET 6 - Observation 8.2
HO_8.3                214                  8.0  2300.1946                                                          # DATASET 6 - Observation 8.3
HO_8.4                215                 22.0  2300.2944                                                          # DATASET 6 - Observation 8.4
HO_8.5                219                 22.0  2300.4946                                                          # DATASET 6 - Observation 8.5
HO_8.6                220                 22.0  2300.1946                                                          # DATASET 6 - Observation 8.6