# SFR package for  MODFLOW-NWT, generated by Flopy.
reachinput 
1696 170 0 0 128390.40000000 0.00010000 55 81 3 15 1 50 
2 9 188 1 1 492.12600708 4689.51025391 0.00471680797637 2.0 196.399002075 0.310000002384 0.130999997258 3.5 0.10000000149
2 10 188 1 2 593.83203125 4614.12402344 0.00553252268583 2.0 196.399002075 0.310000002384 0.130999997258 3.5 0.10000000149
2 11 187 1 3 593.83203125 4540.06103516 0.00540150702 2.0 196.399002075 0.310000002384 0.130999997258 3.5 0.10000000149
2 12 187 1 4 593.83203125 4504.97070312 0.00646612467244 2.0 196.399002075 0.310000002384 0.130999997258 3.5 0.10000000149
2 13 188 1 5 593.83203125 4373.09326172 0.00594044150785 2.0 196.399002075 0.310000002384 0.130999997258 3.5 0.10000000149
2 14 188 1 6 492.12600708 4288.13769531 0.00619484065101 2.0 196.399002075 0.310000002384 0.130999997258 3.5 0.10000000149
2 15 188 1 7 593.83203125 4169.5390625 0.00579591607675 2.0 196.399002075 0.310000002384 0.130999997258 3.5 0.10000000149
2 16 187 1 8 593.83203125 4048.63916016 0.00714281992987 2.0 196.399002075 0.310000002384 0.130999997258 3.5 0.10000000149
2 17 187 1 9 492.12600708 3937.07910156 0.00641558598727 2.0 196.399002075 0.310000002384 0.130999997258 3.5 0.10000000149
2 18 187 1 10 593.83203125 3823.6184082 0.00343639333732 2.0 196.399002075 0.310000002384 0.130999997258 3.5 0.10000000149
2 19 186 1 11 695.538085938 3715.01660156 0.0014706911752 2.0 196.399002075 0.310000002384 0.130999997258 3.5 0.10000000149
2 13 177 2 1 695.538085938 3839.53955078 0.00412881700322 2.0 3.68798446655 0.310000002384 0.130999997258 3.5 0.10000000149
2 14 176 2 2 695.538085938 3732.60717773 0.00354688428342 2.0 3.68798446655 0.310000002384 0.130999997258 3.5 0.10000000149
2 15 175 2 3 695.538085938 3585.94799805 0.00217002211139 2.0 3.68798446655 0.310000002384 0.130999997258 3.5 0.10000000149
2 16 174 2 4 695.538085938 3492.03369141 0.00121751544066 2.0 3.68798446655 0.310000002384 0.130999997258 3.5 0.10000000149
2 17 173 2 5 695.538085938 3421.91943359 0.000933764211368 2.0 3.68798446655 0.310000002384 0.130999997258 3.5 0.10000000149
2 18 172 2 6 695.538085938 3367.32250977 0.000831508426927 2.0 3.68798446655 0.310000002384 0.130999997258 3.5 0.10000000149
2 19 171 2 7 695.538085938 3315.71557617 0.0010348331416 2.0 3.68798446655 0.310000002384 0.130999997258 3.5 0.10000000149
2 20 170 2 8 695.538085938 3250.65405273 0.00107197789475 2.0 3.68798446655 0.310000002384 0.130999997258 3.5 0.10000000149
2 21 169 2 9 593.83203125 3196.6862793 0.000987909385003 2.0 3.68798446655 0.310000002384 0.130999997258 3.5 0.10000000149
2 21 168 2 10 492.12600708 3161.63574219 0.000931669201236 2.0 3.68798446655 0.310000002384 0.130999997258 3.5 0.10000000149
2 21 167 2 11 593.83203125 3133.25683594 0.000937796023209 2.0 3.68798446655 0.310000002384 0.130999997258 3.5 0.10000000149
2 22 166 2 12 593.83203125 3088.81323242 0.00102348276414 2.0 3.68798446655 0.310000002384 0.130999997258 3.5 0.10000000149
2 22 165 2 13 492.12600708 3058.14648438 0.00101491727401 2.0 3.68798446655 0.310000002384 0.130999997258 3.5 0.10000000149
2 22 164 2 14 492.12600708 3030.57055664 0.000645845604595 2.0 3.68798446655 0.310000002384 0.130999997258 3.5 0.10000000149
2 22 163 2 15 492.12600708 3001.46459961 0.000559030973818 2.0 3.68798446655 0.310000002384 0.130999997258 3.5 0.10000000149
2 22 162 2 16 492.12600708 2975.61010742 0.000590614799876 2.0 3.68798446655 0.310000002384 0.130999997258 3.5 0.10000000149
2 22 161 2 17 492.12600708 2952.76586914 0.000513093720656 2.0 3.68798446655 0.310000002384 0.130999997258 3.5 0.10000000149
2 22 160 2 18 492.12600708 2928.56762695 0.000456170091638 2.0 3.68798446655 0.310000002384 0.130999997258 3.5 0.10000000149
2 22 159 2 19 492.12600708 2911.63305664 0.000452802487416 2.0 3.68798446655 0.310000002384 0.130999997258 3.5 0.10000000149
2 22 158 2 20 492.12600708 2888.65161133 0.000467710371595 2.0 3.68798446655 0.310000002384 0.130999997258 3.5 0.10000000149
2 22 157 2 21 492.12600708 2870.19897461 0.000436541333329 2.0 3.68798446655 0.310000002384 0.130999997258 3.5 0.10000000149
2 22 156 2 22 492.12600708 2847.38378906 0.000461661402369 2.0 3.68798446655 0.310000002384 0.130999997258 3.5 0.10000000149
2 22 155 2 23 492.12600708 2828.45263672 0.000542379624676 2.0 3.68798446655 0.310000002384 0.130999997258 3.5 0.10000000149
2 22 154 2 24 492.12600708 2806.27539062 0.000437921815319 2.0 3.68798446655 0.310000002384 0.130999997258 3.5 0.10000000149
2 22 153 2 25 492.12600708 2779.02807617 0.000899016391486 2.0 3.68798446655 0.310000002384 0.130999997258 3.5 0.10000000149
2 22 152 2 26 492.12600708 2757.75756836 0.000640545389615 2.0 3.68798446655 0.310000002384 0.130999997258 3.5 0.10000000149
2 22 151 2 27 492.12600708 2731.20092773 0.000596459663939 2.0 3.68798446655 0.310000002384 0.130999997258 3.5 0.10000000149
1 20 14 3 1 839.895019531 1062.63232422 0.000103498969111 2.0 89.9023361206 0.310000002384 0.130999997258 3.5 0.10000000149
1 20 13 3 2 492.12600708 1061.7265625 7.91285128798e-05 2.0 89.9023361206 0.310000002384 0.130999997258 3.5 0.10000000149
1 20 12 3 3 593.83203125 1056.57092285 0.000218180808588 2.0 89.9023361206 0.310000002384 0.130999997258 3.5 0.10000000149
1 19 11 3 4 593.83203125 1045.39257812 0.000159735354828 2.0 89.9023361206 0.310000002384 0.130999997258 3.5 0.10000000149
1 19 10 3 5 492.12600708 1042.52331543 6.65398911224e-05 2.0 89.9023361206 0.310000002384 0.130999997258 3.5 0.10000000149
1 19 9 3 6 492.12600708 1040.97253418 8.58427883941e-05 2.0 89.9023361206 0.310000002384 0.130999997258 3.5 0.10000000149
1 19 8 3 7 593.83203125 1037.05639648 0.000137390292366 2.0 89.9023361206 0.310000002384 0.130999997258 3.5 0.10000000149
1 18 7 3 8 695.538085938 1031.80236816 0.00035505744745 2.0 89.9023361206 0.310000002384 0.130999997258 3.5 0.10000000149
1 17 6 3 9 695.538085938 1022.25610352 6.51907539577e-05 2.0 89.9023361206 0.310000002384 0.130999997258 3.5 0.10000000149
1 16 5 3 10 695.538085938 1018.03344727 0.000138707910082 2.0 89.9023361206 0.310000002384 0.130999997258 3.5 0.10000000149
1 15 4 3 11 695.538085938 1009.23400879 0.000183310228749 2.0 89.9023361206 0.310000002384 0.130999997258 3.5 0.10000000149
1 14 3 3 12 593.83203125 1002.2878418 0.000111559529614 2.0 89.9023361206 0.310000002384 0.130999997258 3.5 0.10000000149
2 15 168 4 1 695.538085938 3263.38232422 0.0011987342732 2.0 3.68798446655 0.310000002384 0.130999997258 3.5 0.10000000149
2 16 167 4 2 593.83203125 3200.77441406 0.00125629152171 2.0 3.68798446655 0.310000002384 0.130999997258 3.5 0.10000000149
2 16 166 4 3 593.83203125 3158.8659668 0.00128200149629 2.0 3.68798446655 0.310000002384 0.130999997258 3.5 0.10000000149
2 17 165 4 4 695.538085938 3099.83984375 0.00102078204509 2.0 3.68798446655 0.310000002384 0.130999997258 3.5 0.10000000149
2 18 164 4 5 695.538085938 3049.23364258 0.000729413935915 2.0 3.68798446655 0.310000002384 0.130999997258 3.5 0.10000000149
2 19 163 4 6 593.83203125 3018.36962891 0.000561266671866 2.0 3.68798446655 0.310000002384 0.130999997258 3.5 0.10000000149
2 19 162 4 7 492.12600708 2990.97216797 0.000562584784348 2.0 3.68798446655 0.310000002384 0.130999997258 3.5 0.10000000149
2 19 161 4 8 492.12600708 2964.34082031 0.000535539817065 2.0 3.68798446655 0.310000002384 0.130999997258 3.5 0.10000000149
2 19 160 4 9 492.12600708 2940.72949219 0.000469029415399 2.0 3.68798446655 0.310000002384 0.130999997258 3.5 0.10000000149
2 19 159 4 10 492.12600708 2917.77905273 0.000527366879396 2.0 3.68798446655 0.310000002384 0.130999997258 3.5 0.10000000149
2 19 158 4 11 492.12600708 2889.69189453 0.000544204609469 2.0 3.68798446655 0.310000002384 0.130999997258 3.5 0.10000000149
2 19 157 4 12 492.12600708 2867.71069336 0.0004789607774 2.0 3.68798446655 0.310000002384 0.130999997258 3.5 0.10000000149
2 19 156 4 13 492.12600708 2844.47460938 0.000475400331197 2.0 3.68798446655 0.310000002384 0.130999997258 3.5 0.10000000149
2 19 155 4 14 492.12600708 2823.6628418 0.000601003644988 2.0 3.68798446655 0.310000002384 0.130999997258 3.5 0.10000000149
2 19 154 4 15 492.12600708 2798.96191406 0.000446112419013 2.0 3.68798446655 0.310000002384 0.130999997258 3.5 0.10000000149
2 17 199 5 1 695.538085938 5146.92138672 0.00573761994019 2.0 196.399002075 0.310000002384 0.130999997258 3.5 0.10000000149
2 16 198 5 2 593.83203125 5038.60253906 0.00556390685961 2.0 196.399002075 0.310000002384 0.130999997258 3.5 0.10000000149
2 16 197 5 3 492.12600708 4905.61035156 0.00402848236263 2.0 196.399002075 0.310000002384 0.130999997258 3.5 0.10000000149
2 16 196 5 4 593.83203125 4844.25195312 0.00544117297977 2.0 196.399002075 0.310000002384 0.130999997258 3.5 0.10000000149
2 15 195 5 5 695.538085938 4724.37109375 0.00518577639014 2.0 196.399002075 0.310000002384 0.130999997258 3.5 0.10000000149
2 16 194 5 6 695.538085938 4617.04296875 0.00745486980304 2.0 196.399002075 0.310000002384 0.130999997258 3.5 0.10000000149
2 17 193 5 7 695.538085938 4405.86914062 0.00720121711493 2.0 196.399002075 0.310000002384 0.130999997258 3.5 0.10000000149
2 18 192 5 8 593.83203125 4162.60058594 0.00582676474005 2.0 196.399002075 0.310000002384 0.130999997258 3.5 0.10000000149
2 18 191 5 9 593.83203125 4062.79589844 0.00646503036842 2.0 196.399002075 0.310000002384 0.130999997258 3.5 0.10000000149
2 19 190 5 10 593.83203125 3922.10107422 0.00494360970333 2.0 196.399002075 0.310000002384 0.130999997258 3.5 0.10000000149
2 19 189 5 11 593.83203125 3860.29614258 0.0029451106675 2.0 196.399002075 0.310000002384 0.130999997258 3.5 0.10000000149
2 20 188 5 12 593.83203125 3790.83789062 0.00241560209543 2.0 196.399002075 0.310000002384 0.130999997258 3.5 0.10000000149
2 20 187 5 13 492.12600708 3741.22021484 0.00186857266817 2.0 196.399002075 0.310000002384 0.130999997258 3.5 0.10000000149
2 20 186 5 14 492.12600708 3689.31469727 0.00150853942614 2.0 196.399002075 0.310000002384 0.130999997258 3.5 0.10000000149
2 16 206 6 1 492.12600708 5495.54296875 0.00753670278937 2.0 196.399002075 0.310000002384 0.130999997258 3.5 0.10000000149
2 17 206 6 2 492.12600708 5349.43603516 0.0061870557256 2.0 196.399002075 0.310000002384 0.130999997258 3.5 0.10000000149
2 18 206 6 3 492.12600708 5223.43310547 0.00690429471433 2.0 196.399002075 0.310000002384 0.130999997258 3.5 0.10000000149
2 19 206 6 4 593.83203125 5129.515625 0.00698271393776 2.0 196.399002075 0.310000002384 0.130999997258 3.5 0.10000000149
2 20 205 6 5 695.538085938 5042.78271484 0.00523835653439 2.0 196.399002075 0.310000002384 0.130999997258 3.5 0.10000000149
2 21 204 6 6 593.83203125 4866.00439453 0.00602260464802 2.0 196.399002075 0.310000002384 0.130999997258 3.5 0.10000000149
2 17 159 7 1 695.538085938 2925.72387695 0.000637270743027 2.0 3.68798446655 0.310000002384 0.130999997258 3.5 0.10000000149
2 18 158 7 2 593.83203125 2892.80419922 0.000594459997956 2.0 3.68798446655 0.310000002384 0.130999997258 3.5 0.10000000149
2 18 157 7 3 492.12600708 2874.43017578 0.000439445400843 2.0 3.68798446655 0.310000002384 0.130999997258 3.5 0.10000000149
2 18 156 7 4 492.12600708 2855.46972656 0.000459072442027 2.0 3.68798446655 0.310000002384 0.130999997258 3.5 0.10000000149
2 18 155 7 5 492.12600708 2832.77880859 0.000691562658176 2.0 3.68798446655 0.310000002384 0.130999997258 3.5 0.10000000149
2 18 154 7 6 593.83203125 2803.79150391 0.00051817682106 2.0 3.68798446655 0.310000002384 0.130999997258 3.5 0.10000000149
2 17 211 8 1 695.538085938 6286.30322266 0.0083032278344 2.0 196.399002075 0.310000002384 0.130999997258 3.5 0.10000000149
2 18 210 8 2 695.538085938 5946.49462891 0.00792433228344 2.0 196.399002075 0.310000002384 0.130999997258 3.5 0.10000000149
2 19 209 8 3 695.538085938 5595.20019531 0.00737340794876 2.0 196.399002075 0.310000002384 0.130999997258 3.5 0.10000000149
2 20 208 8 4 695.538085938 5354.25976562 0.00653734151274 2.0 196.399002075 0.310000002384 0.130999997258 3.5 0.10000000149
2 21 207 8 5 593.83203125 5121.89111328 0.00605885218829 2.0 196.399002075 0.310000002384 0.130999997258 3.5 0.10000000149
2 21 206 8 6 492.12600708 5012.42773438 0.00593962008134 2.0 196.399002075 0.310000002384 0.130999997258 3.5 0.10000000149
2 21 205 8 7 593.83203125 4877.51708984 0.00618370249867 2.0 196.399002075 0.310000002384 0.130999997258 3.5 0.10000000149
2 18 178 9 1 492.12600708 3546.48339844 0.00114157388452 2.0 196.399002075 0.310000002384 0.130999997258 3.5 0.10000000149
2 19 178 9 2 593.83203125 3498.16088867 0.00109200435691 2.0 196.399002075 0.310000002384 0.130999997258 3.5 0.10000000149
2 20 177 9 3 695.538085938 3447.4921875 0.000731004052795 2.0 196.399002075 0.310000002384 0.130999997258 3.5 0.10000000149
2 21 176 9 4 695.538085938 3393.08105469 0.00089393905364 2.0 196.399002075 0.310000002384 0.130999997258 3.5 0.10000000149
2 22 175 9 5 593.83203125 3344.68798828 0.000935421325266 2.0 196.399002075 0.310000002384 0.130999997258 3.5 0.10000000149
2 19 153 10 1 941.601074219 2775.03149414 0.000558993429877 2.0 3.68798446655 0.310000002384 0.130999997258 3.5 0.10000000149
2 20 152 10 2 695.538085938 2756.37084961 0.000571399519686 2.0 3.68798446655 0.310000002384 0.130999997258 3.5 0.10000000149
2 21 151 10 3 695.538085938 2727.13183594 0.00062901864294 2.0 3.68798446655 0.310000002384 0.130999997258 3.5 0.10000000149
1 35 39 11 1 941.601074219 1237.20471191 0.0003626816615 2.0 89.9023361206 0.310000002384 0.130999997258 3.5 0.10000000149
1 34 39 11 2 593.83203125 1224.33569336 0.000240390509134 2.0 89.9023361206 0.310000002384 0.130999997258 3.5 0.10000000149
1 33 38 11 3 593.83203125 1221.83190918 0.00019788739155 2.0 89.9023361206 0.310000002384 0.130999997258 3.5 0.10000000149
1 32 38 11 4 593.83203125 1214.5826416 0.000184460048331 2.0 89.9023361206 0.310000002384 0.130999997258 3.5 0.10000000149
1 31 37 11 5 695.538085938 1202.55432129 0.000153189103003 2.0 89.9023361206 0.310000002384 0.130999997258 3.5 0.10000000149
1 30 36 11 6 593.83203125 1199.04797363 0.000154721463332 2.0 89.9023361206 0.310000002384 0.130999997258 3.5 0.10000000149
1 30 35 11 7 593.83203125 1191.96276855 0.000271877768682 2.0 89.9023361206 0.310000002384 0.130999997258 3.5 0.10000000149
1 29 34 11 8 593.83203125 1182.88781738 0.000112915236969 2.0 89.9023361206 0.310000002384 0.130999997258 3.5 0.10000000149
1 29 33 11 9 593.83203125 1180.81591797 0.00013343016326 2.0 89.9023361206 0.310000002384 0.130999997258 3.5 0.10000000149
1 28 32 11 10 593.83203125 1170.97119141 0.000277334300335 2.0 89.9023361206 0.310000002384 0.130999997258 3.5 0.10000000149
1 28 31 11 11 593.83203125 1165.4375 0.000268935051281 2.0 89.9023361206 0.310000002384 0.130999997258 3.5 0.10000000149
1 27 30 11 12 593.83203125 1160.62683105 9.5845782198e-05 2.0 89.9023361206 0.310000002384 0.130999997258 3.5 0.10000000149
1 27 29 11 13 593.83203125 1158.40393066 0.000156701396918 2.0 89.9023361206 0.310000002384 0.130999997258 3.5 0.10000000149
1 26 28 11 14 593.83203125 1144.19152832 0.000168163503986 2.0 89.9023361206 0.310000002384 0.130999997258 3.5 0.10000000149
1 26 27 11 15 593.83203125 1143.46911621 0.000172625092091 2.0 89.9023361206 0.310000002384 0.130999997258 3.5 0.10000000149
1 25 26 11 16 593.83203125 1140.80236816 0.00012305456039 2.0 89.9023361206 0.310000002384 0.130999997258 3.5 0.10000000149
1 25 25 11 17 492.12600708 1135.51330566 0.000210531157791 2.0 89.9023361206 0.310000002384 0.130999997258 3.5 0.10000000149
1 25 24 11 18 492.12600708 1127.0501709 0.000283480127109 2.0 89.9023361206 0.310000002384 0.130999997258 3.5 0.10000000149
1 25 23 11 19 593.83203125 1125.05407715 0.000200681810384 2.0 89.9023361206 0.310000002384 0.130999997258 3.5 0.10000000149
1 24 22 11 20 695.538085938 1117.03771973 0.000167340956978 2.0 89.9023361206 0.310000002384 0.130999997258 3.5 0.10000000149
1 23 21 11 21 695.538085938 1104.86108398 0.000180059767445 2.0 89.9023361206 0.310000002384 0.130999997258 3.5 0.10000000149
1 22 20 11 22 593.83203125 1101.05700684 8.66148766363e-05 2.0 89.9023361206 0.310000002384 0.130999997258 3.5 0.10000000149
1 22 19 11 23 593.83203125 1093.60998535 0.000319775164826 2.0 89.9023361206 0.310000002384 0.130999997258 3.5 0.10000000149
1 21 18 11 24 593.83203125 1084.25073242 0.000156952315592 2.0 89.9023361206 0.310000002384 0.130999997258 3.5 0.10000000149
1 21 17 11 25 593.83203125 1082.09436035 7.79677866376e-05 2.0 89.9023361206 0.310000002384 0.130999997258 3.5 0.10000000149
1 20 16 11 26 593.83203125 1075.66992188 0.000187978555914 2.0 89.9023361206 0.310000002384 0.130999997258 3.5 0.10000000149
1 20 15 11 27 492.12600708 1066.7355957 0.0002241799084 2.0 89.9023361206 0.310000002384 0.130999997258 3.5 0.10000000149
1 20 26 12 1 492.12600708 1120.82714844 0.000106640931335 2.0 89.9023361206 0.310000002384 0.130999997258 3.5 0.10000000149
1 20 25 12 2 593.83203125 1116.21166992 0.000101714787888 2.0 89.9023361206 0.310000002384 0.130999997258 3.5 0.10000000149
1 21 24 12 3 695.538085938 1114.87414551 9.74385693553e-05 2.0 89.9023361206 0.310000002384 0.130999997258 3.5 0.10000000149
1 20 23 12 4 695.538085938 1107.80847168 0.000106671235699 2.0 89.9023361206 0.310000002384 0.130999997258 3.5 0.10000000149
1 19 22 12 5 695.538085938 1100.74304199 9.54371716944e-05 2.0 89.9023361206 0.310000002384 0.130999997258 3.5 0.10000000149
1 18 21 12 6 593.83203125 1095.30578613 9.62968260865e-05 2.0 89.9023361206 0.310000002384 0.130999997258 3.5 0.10000000149
1 18 20 12 7 492.12600708 1090.92492676 0.000100488614407 2.0 89.9023361206 0.310000002384 0.130999997258 3.5 0.10000000149
1 18 19 12 8 492.12600708 1086.52233887 0.000143231765833 2.0 89.9023361206 0.310000002384 0.130999997258 3.5 0.10000000149
1 18 18 12 9 492.12600708 1080.80212402 0.000105328705104 2.0 89.9023361206 0.310000002384 0.130999997258 3.5 0.10000000149
1 18 17 12 10 492.12600708 1076.94946289 0.000107679472421 2.0 89.9023361206 0.310000002384 0.130999997258 3.5 0.10000000149
1 18 16 12 11 593.83203125 1075.58837891 0.000240435765591 2.0 89.9023361206 0.310000002384 0.130999997258 3.5 0.10000000149
1 19 15 12 12 695.538085938 1067.64123535 0.000154637731612 2.0 89.9023361206 0.310000002384 0.130999997258 3.5 0.10000000149
2 20 185 13 1 941.601074219 3649.15673828 0.0014016792411 2.0 196.399002075 0.310000002384 0.130999997258 3.5 0.10000000149
2 21 184 13 2 695.538085938 3593.85913086 0.00107182771899 2.0 196.399002075 0.310000002384 0.130999997258 3.5 0.10000000149
2 22 183 13 3 593.83203125 3539.3515625 0.00118392752483 2.0 196.399002075 0.310000002384 0.130999997258 3.5 0.10000000149
2 22 182 13 4 492.12600708 3523.59130859 0.00138822279405 2.0 196.399002075 0.310000002384 0.130999997258 3.5 0.10000000149
2 22 181 13 5 593.83203125 3496.8059082 0.00150684802793 2.0 196.399002075 0.310000002384 0.130999997258 3.5 0.10000000149
2 23 180 13 6 593.83203125 3437.48608398 0.00100143789314 2.0 196.399002075 0.310000002384 0.130999997258 3.5 0.10000000149
2 23 179 13 7 492.12600708 3405.83520508 0.00107875140384 2.0 196.399002075 0.310000002384 0.130999997258 3.5 0.10000000149
2 23 178 13 8 492.12600708 3377.52514648 0.00107804441359 2.0 196.399002075 0.310000002384 0.130999997258 3.5 0.10000000149
2 23 177 13 9 492.12600708 3360.76391602 0.00118033878971 2.0 196.399002075 0.310000002384 0.130999997258 3.5 0.10000000149
2 23 176 13 10 492.12600708 3323.63623047 0.00113722786773 2.0 196.399002075 0.310000002384 0.130999997258 3.5 0.10000000149
2 22 150 14 1 839.895019531 2715.62207031 0.000677115982398 2.0 3.68798446655 0.310000002384 0.130999997258 3.5 0.10000000149
2 22 149 14 2 593.83203125 2700.23242188 0.00143097364344 2.0 3.68798446655 0.310000002384 0.130999997258 3.5 0.10000000149
2 23 148 14 3 695.538085938 2678.44433594 0.000883087224793 2.0 3.68798446655 0.310000002384 0.130999997258 3.5 0.10000000149
2 24 147 14 4 695.538085938 2641.32275391 0.000823030888569 2.0 3.68798446655 0.310000002384 0.130999997258 3.5 0.10000000149
2 25 146 14 5 695.538085938 2636.79296875 0.000611612165812 2.0 3.68798446655 0.310000002384 0.130999997258 3.5 0.10000000149
2 26 145 14 6 593.83203125 2625.86401367 0.00129649438895 2.0 3.68798446655 0.310000002384 0.130999997258 3.5 0.10000000149
2 27 145 14 7 492.12600708 2584.30493164 0.00130131246988 2.0 3.68798446655 0.310000002384 0.130999997258 3.5 0.10000000149
2 28 145 14 8 593.83203125 2569.0847168 0.00135666213464 2.0 3.68798446655 0.310000002384 0.130999997258 3.5 0.10000000149
2 29 144 14 9 695.538085938 2555.89624023 0.00123877439182 2.0 3.68798446655 0.310000002384 0.130999997258 3.5 0.10000000149
2 30 143 14 10 695.538085938 2534.87939453 0.00115602195729 2.0 3.68798446655 0.310000002384 0.130999997258 3.5 0.10000000149
2 22 204 15 1 941.601074219 4717.31982422 0.00581860169768 2.0 196.399002075 0.310000002384 0.130999997258 3.5 0.10000000149
2 23 203 15 2 695.538085938 4682.55566406 0.00561445998028 2.0 196.399002075 0.310000002384 0.130999997258 3.5 0.10000000149
2 24 202 15 3 593.83203125 4475.50244141 0.00284236762673 2.0 196.399002075 0.310000002384 0.130999997258 3.5 0.10000000149
2 24 201 15 4 492.12600708 4422.42871094 0.00241482304409 2.0 196.399002075 0.310000002384 0.130999997258 3.5 0.10000000149
2 24 200 15 5 593.83203125 4366.33642578 0.00220219814219 2.0 196.399002075 0.310000002384 0.130999997258 3.5 0.10000000149
2 25 199 15 6 593.83203125 4303.98535156 0.00174930121284 2.0 196.399002075 0.310000002384 0.130999997258 3.5 0.10000000149
2 25 198 15 7 492.12600708 4244.96044922 0.00129076628946 2.0 196.399002075 0.310000002384 0.130999997258 3.5 0.10000000149
2 25 197 15 8 492.12600708 4201.46777344 0.000939731369726 2.0 196.399002075 0.310000002384 0.130999997258 3.5 0.10000000149
2 25 196 15 9 492.12600708 4155.58007812 0.00108803936746 2.0 196.399002075 0.310000002384 0.130999997258 3.5 0.10000000149
2 25 195 15 10 492.12600708 4110.51416016 0.00124142540153 2.0 196.399002075 0.310000002384 0.130999997258 3.5 0.10000000149
2 25 194 15 11 492.12600708 4059.74633789 0.00116840354167 2.0 196.399002075 0.310000002384 0.130999997258 3.5 0.10000000149
2 25 193 15 12 492.12600708 4024.92626953 0.00115675723646 2.0 196.399002075 0.310000002384 0.130999997258 3.5 0.10000000149
2 25 192 15 13 593.83203125 3986.20898438 0.00146703887731 2.0 196.399002075 0.310000002384 0.130999997258 3.5 0.10000000149
2 23 175 16 1 839.895019531 3301.40161133 0.00112912734039 2.0 196.399002075 0.310000002384 0.130999997258 3.5 0.10000000149
2 24 174 16 2 593.83203125 3268.89477539 0.00105902494397 2.0 196.399002075 0.310000002384 0.130999997258 3.5 0.10000000149
2 24 173 16 3 492.12600708 3245.83032227 0.00094559561694 2.0 196.399002075 0.310000002384 0.130999997258 3.5 0.10000000149
2 24 172 16 4 492.12600708 3217.35668945 0.000775812542997 2.0 196.399002075 0.310000002384 0.130999997258 3.5 0.10000000149
2 24 171 16 5 492.12600708 3198.79248047 0.000509455276188 2.0 196.399002075 0.310000002384 0.130999997258 3.5 0.10000000149
2 24 170 16 6 593.83203125 3178.53125 0.000877480953932 2.0 196.399002075 0.310000002384 0.130999997258 3.5 0.10000000149
2 25 169 16 7 593.83203125 3144.91015625 0.000946003361605 2.0 196.399002075 0.310000002384 0.130999997258 3.5 0.10000000149
2 25 168 16 8 593.83203125 3120.11352539 0.000875206314959 2.0 196.399002075 0.310000002384 0.130999997258 3.5 0.10000000149
2 26 167 16 9 593.83203125 3083.89941406 0.000714914232958 2.0 196.399002075 0.310000002384 0.130999997258 3.5 0.10000000149
2 26 166 16 10 492.12600708 3066.08691406 0.00117202010006 2.0 196.399002075 0.310000002384 0.130999997258 3.5 0.10000000149
2 26 165 16 11 492.12600708 3032.00097656 0.000790950318333 2.0 196.399002075 0.310000002384 0.130999997258 3.5 0.10000000149
2 26 164 16 12 593.83203125 3010.78173828 0.000647017091978 2.0 196.399002075 0.310000002384 0.130999997258 3.5 0.10000000149
2 27 163 16 13 593.83203125 2981.55737305 0.000748055346776 2.0 196.399002075 0.310000002384 0.130999997258 3.5 0.10000000149
2 27 162 16 14 492.12600708 2957.65454102 0.000634789932519 2.0 196.399002075 0.310000002384 0.130999997258 3.5 0.10000000149
2 27 161 16 15 492.12600708 2931.95703125 0.000701683282387 2.0 196.399002075 0.310000002384 0.130999997258 3.5 0.10000000149
2 27 160 16 16 492.12600708 2914.19702148 0.000561983848456 2.0 196.399002075 0.310000002384 0.130999997258 3.5 0.10000000149
2 27 159 16 17 492.12600708 2886.0612793 0.00051538128173 2.0 196.399002075 0.310000002384 0.130999997258 3.5 0.10000000149
2 27 158 16 18 492.12600708 2874.5690918 0.000629961839877 2.0 196.399002075 0.310000002384 0.130999997258 3.5 0.10000000149
2 27 157 16 19 492.12600708 2844.18603516 0.000579867570195 2.0 196.399002075 0.310000002384 0.130999997258 3.5 0.10000000149
2 27 156 16 20 492.12600708 2836.45214844 0.000516853411682 2.0 196.399002075 0.310000002384 0.130999997258 3.5 0.10000000149
2 27 155 16 21 593.83203125 2809.23510742 0.000792386359535 2.0 196.399002075 0.310000002384 0.130999997258 3.5 0.10000000149
2 28 154 16 22 593.83203125 2780.01757812 0.00051498360699 2.0 196.399002075 0.310000002384 0.130999997258 3.5 0.10000000149
2 28 153 16 23 593.83203125 2763.05249023 0.000447318365332 2.0 196.399002075 0.310000002384 0.130999997258 3.5 0.10000000149
2 29 152 16 24 695.538085938 2729.51782227 0.000549766758922 2.0 196.399002075 0.310000002384 0.130999997258 3.5 0.10000000149
2 30 151 16 25 695.538085938 2697.35546875 0.00045080613927 2.0 196.399002075 0.310000002384 0.130999997258 3.5 0.10000000149
2 31 150 16 26 593.83203125 2666.48828125 0.000509830191731 2.0 196.399002075 0.310000002384 0.130999997258 3.5 0.10000000149
2 32 150 16 27 593.83203125 2648.4831543 0.000535995641258 2.0 196.399002075 0.310000002384 0.130999997258 3.5 0.10000000149
2 24 222 17 1 492.12600708 6249.34277344 0.0062229949981 2.0 351189.875 0.310000002384 0.130999997258 3.5 0.10000000149
2 25 222 17 2 593.83203125 6130.63232422 0.00529465125874 2.0 351189.875 0.310000002384 0.130999997258 3.5 0.10000000149
2 26 221 17 3 593.83203125 6030.02441406 0.00521744228899 2.0 351189.875 0.310000002384 0.130999997258 3.5 0.10000000149
2 27 221 17 4 593.83203125 5843.89111328 0.00774059211835 2.0 351189.875 0.310000002384 0.130999997258 3.5 0.10000000149
2 28 220 17 5 695.538085938 5618.72167969 0.00913927797228 2.0 351189.875 0.310000002384 0.130999997258 3.5 0.10000000149
2 29 219 17 6 695.538085938 5398.26708984 0.00690029840916 2.0 351189.875 0.310000002384 0.130999997258 3.5 0.10000000149
2 30 218 17 7 695.538085938 5217.82519531 0.00419221119955 2.0 351189.875 0.310000002384 0.130999997258 3.5 0.10000000149
2 31 217 17 8 695.538085938 5104.17822266 0.00199242075905 2.0 351189.875 0.310000002384 0.130999997258 3.5 0.10000000149
2 32 216 17 9 593.83203125 5028.1484375 0.00125014816877 2.0 351189.875 0.310000002384 0.130999997258 3.5 0.10000000149
2 33 216 17 10 492.12600708 4972.16210938 0.00119408417959 2.0 351189.875 0.310000002384 0.130999997258 3.5 0.10000000149
2 34 216 17 11 593.83203125 4916.90576172 0.00106421217788 2.0 351189.875 0.310000002384 0.130999997258 3.5 0.10000000149
2 35 215 17 12 695.538085938 4853.86279297 0.0011974220397 2.0 351189.875 0.310000002384 0.130999997258 3.5 0.10000000149
2 36 214 17 13 593.83203125 4798.52880859 0.00138345919549 2.0 351189.875 0.310000002384 0.130999997258 3.5 0.10000000149
2 37 214 17 14 593.83203125 4743.99560547 0.00117770931683 2.0 351189.875 0.310000002384 0.130999997258 3.5 0.10000000149
2 38 213 17 15 593.83203125 4680.78271484 0.00168396672234 2.0 351189.875 0.310000002384 0.130999997258 3.5 0.10000000149
2 39 213 17 16 593.83203125 4627.01025391 0.00107578875031 2.0 351189.875 0.310000002384 0.130999997258 3.5 0.10000000149
2 40 212 17 17 695.538085938 4569.03808594 0.00125976186246 2.0 351189.875 0.310000002384 0.130999997258 3.5 0.10000000149
2 41 211 17 18 695.538085938 4500.72070312 0.000985258026049 2.0 351189.875 0.310000002384 0.130999997258 3.5 0.10000000149
2 25 127 18 1 492.12600708 2843.47387695 0.00377246830612 2.0 17991.7597656 0.310000002384 0.130999997258 3.5 0.10000000149
2 26 127 18 2 492.12600708 2830.37719727 0.00397530291229 2.0 17991.7597656 0.310000002384 0.130999997258 3.5 0.10000000149
2 27 127 18 3 492.12600708 2816.2800293 0.00485917320475 2.0 17991.7597656 0.310000002384 0.130999997258 3.5 0.10000000149
2 28 127 18 4 492.12600708 2769.37963867 0.00512581365183 2.0 17991.7597656 0.310000002384 0.130999997258 3.5 0.10000000149
2 29 127 18 5 492.12600708 2670.52368164 0.00544338580221 2.0 17991.7597656 0.310000002384 0.130999997258 3.5 0.10000000149
2 30 127 18 6 593.83203125 2663.28173828 0.0067615644075 2.0 17991.7597656 0.310000002384 0.130999997258 3.5 0.10000000149
2 31 128 18 7 695.538085938 2608.92211914 0.00624748598784 2.0 17991.7597656 0.310000002384 0.130999997258 3.5 0.10000000149
2 32 129 18 8 593.83203125 2605.51123047 0.00700267357752 2.0 17991.7597656 0.310000002384 0.130999997258 3.5 0.10000000149
2 33 129 18 9 492.12600708 2464.59570312 0.00266120699234 2.0 17991.7597656 0.310000002384 0.130999997258 3.5 0.10000000149
2 34 129 18 10 492.12600708 2423.36547852 0.00135375757236 2.0 17991.7597656 0.310000002384 0.130999997258 3.5 0.10000000149
2 35 129 18 11 492.12600708 2385.49365234 0.00092723313719 2.0 17991.7597656 0.310000002384 0.130999997258 3.5 0.10000000149
2 36 129 18 12 492.12600708 2351.35864258 0.000997618073598 2.0 17991.7597656 0.310000002384 0.130999997258 3.5 0.10000000149
2 37 129 18 13 492.12600708 2312.02636719 0.000708285486326 2.0 17991.7597656 0.310000002384 0.130999997258 3.5 0.10000000149
2 38 129 18 14 492.12600708 2282.94628906 0.000664638995659 2.0 17991.7597656 0.310000002384 0.130999997258 3.5 0.10000000149
2 39 129 18 15 593.83203125 2253.3046875 0.000826466479339 2.0 17991.7597656 0.310000002384 0.130999997258 3.5 0.10000000149
2 40 128 18 16 593.83203125 2228.26708984 0.000404940161388 2.0 17991.7597656 0.310000002384 0.130999997258 3.5 0.10000000149
2 25 214 19 1 695.538085938 5476.76074219 0.00683449720964 2.0 196.399002075 0.310000002384 0.130999997258 3.5 0.10000000149