# DIS package for  MODFLOW-NWT, generated by Flopy.
         4       134       237       816         4         1
  0  0  0  0
INTERNAL               1 (237E15.6) -1 #delr                          
   4.921260E+02   4.921260E+02   4.921260E+02   4.921260E+02   4.921260E+02   4.921260E+02   4.921260E+02   4.921260E+02   4.921260E+02   4.921260E+02   4.921260E+02   4.921260E+02   4.921260E+02   4.921260E+02   4.921260E+02   4.921260E+02   4.921260E+02   4.921260E+02   4.921260E+02   4.921260E+02   4.921260E+02   4.921260E+02   4.921260E+02   4.921260E+02   4.921260E+02   4.921260E+02   4.921260E+02   4.921260E+02   4.921260E+02   4.921260E+02   4.921260E+02   4.921260E+02   4.921260E+02   4.921260E+02   4.921260E+02   4.921260E+02   4.921260E+02   4.921260E+02   4.921260E+02   4.921260E+02   4.921260E+02   4.921260E+02   4.921260E+02   4.921260E+02   4.921260E+02   4.921260E+02   4.921260E+02   4.921260E+02   4.921260E+02   4.921260E+02   4.921260E+02   4.921260E+02   4.921260E+02   4.921260E+02   4.921260E+02   4.921260E+02   4.921260E+02   4.921260E+02   4.921260E+02   4.921260E+02   4.921260E+02   4.921260E+02   4.921260E+02   4.921260E+02   4.921260E+02   4.921260E+02   4.921260E+02   4.921260E+02   4.921260E+02   4.921260E+02   4.921260E+02   4.921260E+02   4.921260E+02   4.921260E+02   4.921260E+02   4.921260E+02   4.921260E+02   4.921260E+02   4.921260E+02   4.921260E+02   4.921260E+02   4.921260E+02   4.921260E+02   4.921260E+02   4.921260E+02   4.921260E+02   4.921260E+02   4.921260E+02   4.921260E+02   4.921260E+02   4.921260E+02   4.921260E+02   4.921260E+02   4.921260E+02   4.921260E+02   4.921260E+02   4.921260E+02   4.921260E+02   4.921260E+02   4.921260E+02   4.921260E+02   4.921260E+02   4.921260E+02   4.921260E+02   4.921260E+02   4.921260E+02   4.921260E+02   4.921260E+02   4.921260E+02   4.921260E+02   4.921260E+02   4.921260E+02   4.921260E+02   4.921260E+02   4.921260E+02   4.921260E+02   4.921260E+02   4.921260E+02   4.921260E+02   4.921260E+02   4.921260E+02   4.921260E+02   4.921260E+02   4.921260E+02   4.921260E+02   4.921260E+02   4.921260E+02   4.921260E+02   4.921260E+02   4.921260E+02   4.921260E+02   4.921260E+02   4.921260E+02   4.921260E+02   4.921260E+02   4.921260E+02   4.921260E+02   4.921260E+02   4.921260E+02   4.921260E+02   4.921260E+02   4.921260E+02   4.921260E+02   4.921260E+02   4.921260E+02   4.921260E+02   4.921260E+02   4.921260E+02   4.921260E+02   4.921260E+02   4.921260E+02   4.921260E+02   4.921260E+02   4.921260E+02   4.921260E+02   4.921260E+02   4.921260E+02   4.921260E+02   4.921260E+02   4.921260E+02   4.921260E+02   4.921260E+02   4.921260E+02   4.921260E+02   4.921260E+02   4.921260E+02   4.921260E+02   4.921260E+02   4.921260E+02   4.921260E+02   4.921260E+02   4.921260E+02   4.921260E+02   4.921260E+02   4.921260E+02   4.921260E+02   4.921260E+02   4.921260E+02   4.921260E+02   4.921260E+02   4.921260E+02   4.921260E+02   4.921260E+02   4.921260E+02   4.921260E+02   4.921260E+02   4.921260E+02   4.921260E+02   4.921260E+02   4.921260E+02   4.921260E+02   4.921260E+02   4.921260E+02   4.921260E+02   4.921260E+02   4.921260E+02   4.921260E+02   4.921260E+02   4.921260E+02   4.921260E+02   4.921260E+02   4.921260E+02   4.921260E+02   4.921260E+02   4.921260E+02   4.921260E+02   4.921260E+02   4.921260E+02   4.921260E+02   4.921260E+02   4.921260E+02   4.921260E+02   4.921260E+02   4.921260E+02   4.921260E+02   4.921260E+02   4.921260E+02   4.921260E+02   4.921260E+02   4.921260E+02   4.921260E+02   4.921260E+02   4.921260E+02   4.921260E+02   4.921260E+02   4.921260E+02   4.921260E+02   4.921260E+02   4.921260E+02   4.921260E+02   4.921260E+02   4.921260E+02   4.921260E+02   4.921260E+02   4.921260E+02   4.921260E+02   4.921260E+02
INTERNAL               1 (134E15.6) -1 #delc                          
   4.921260E+02   4.921260E+02   4.921260E+02   4.921260E+02   4.921260E+02   4.921260E+02   4.921260E+02   4.921260E+02   4.921260E+02   4.921260E+02   4.921260E+02   4.921260E+02   4.921260E+02   4.921260E+02   4.921260E+02   4.921260E+02   4.921260E+02   4.921260E+02   4.921260E+02   4.921260E+02   4.921260E+02   4.921260E+02   4.921260E+02   4.921260E+02   4.921260E+02   4.921260E+02   4.921260E+02   4.921260E+02   4.921260E+02   4.921260E+02   4.921260E+02   4.921260E+02   4.921260E+02   4.921260E+02   4.921260E+02   4.921260E+02   4.921260E+02   4.921260E+02   4.921260E+02   4.921260E+02   4.921260E+02   4.921260E+02   4.921260E+02   4.921260E+02   4.921260E+02   4.921260E+02   4.921260E+02   4.921260E+02   4.921260E+02   4.921260E+02   4.921260E+02   4.921260E+02   4.921260E+02   4.921260E+02   4.921260E+02   4.921260E+02   4.921260E+02   4.921260E+02   4.921260E+02   4.921260E+02   4.921260E+02   4.921260E+02   4.921260E+02   4.921260E+02   4.921260E+02   4.921260E+02   4.921260E+02   4.921260E+02   4.921260E+02   4.921260E+02   4.921260E+02   4.921260E+02   4.921260E+02   4.921260E+02   4.921260E+02   4.921260E+02   4.921260E+02   4.921260E+02   4.921260E+02   4.921260E+02   4.921260E+02   4.921260E+02   4.921260E+02   4.921260E+02   4.921260E+02   4.921260E+02   4.921260E+02   4.921260E+02   4.921260E+02   4.921260E+02   4.921260E+02   4.921260E+02   4.921260E+02   4.921260E+02   4.921260E+02   4.921260E+02   4.921260E+02   4.921260E+02   4.921260E+02   4.921260E+02   4.921260E+02   4.921260E+02   4.921260E+02   4.921260E+02   4.921260E+02   4.921260E+02   4.921260E+02   4.921260E+02   4.921260E+02   4.921260E+02   4.921260E+02   4.921260E+02   4.921260E+02   4.921260E+02   4.921260E+02   4.921260E+02   4.921260E+02   4.921260E+02   4.921260E+02   4.921260E+02   4.921260E+02   4.921260E+02   4.921260E+02   4.921260E+02   4.921260E+02   4.921260E+02   4.921260E+02   4.921260E+02   4.921260E+02   4.921260E+02   4.921260E+02   4.921260E+02   4.921260E+02   4.921260E+02
INTERNAL               1     (FREE) -1 #model_top                     
  -3.280512E+04  -3.280512E+04  -3.280512E+04  -3.280512E+04  -3.280512E+04  -3.280512E+04  -3.280512E+04  -3.280512E+04  -3.280512E+04  -3.280512E+04  -3.280512E+04  -3.280512E+04  -3.280512E+04  -3.280512E+04  -3.280512E+04  -3.280512E+04  -3.280512E+04  -3.280512E+04  -3.280512E+04  -3.280512E+04  -3.280512E+04  -3.280512E+04  -3.280512E+04  -3.280512E+04  -3.280512E+04  -3.280512E+04  -3.280512E+04  -3.280512E+04  -3.280512E+04  -3.280512E+04  -3.280512E+04  -3.280512E+04  -3.280512E+04  -3.280512E+04  -3.280512E+04  -3.280512E+04  -3.280512E+04  -3.280512E+04  -3.280512E+04  -3.280512E+04  -3.280512E+04  -3.280512E+04  -3.280512E+04  -3.280512E+04  -3.280512E+04  -3.280512E+04  -3.280512E+04  -3.280512E+04  -3.280512E+04  -3.280512E+04  -3.280512E+04  -3.280512E+04  -3.280512E+04  -3.280512E+04  -3.280512E+04  -3.280512E+04  -3.280512E+04  -3.280512E+04  -3.280512E+04  -3.280512E+04  -3.280512E+04  -3.280512E+04  -3.280512E+04  -3.280512E+04  -3.280512E+04  -3.280512E+04  -3.280512E+04  -3.280512E+04  -3.280512E+04  -3.280512E+04  -3.280512E+04  -3.280512E+04  -3.280512E+04  -3.280512E+04  -3.280512E+04  -3.280512E+04  -3.280512E+04  -3.280512E+04  -3.280512E+04  -3.280512E+04  -3.280512E+04  -3.280512E+04  -3.280512E+04  -3.280512E+04  -3.280512E+04  -3.280512E+04  -3.280512E+04  -3.280512E+04  -3.280512E+04  -3.280512E+04  -3.280512E+04  -3.280512E+04  -3.280512E+04  -3.280512E+04  -3.280512E+04  -3.280512E+04  -3.280512E+04  -3.280512E+04  -3.280512E+04  -3.280512E+04  -3.280512E+04  -3.280512E+04  -3.280512E+04  -3.280512E+04  -3.280512E+04  -3.280512E+04  -3.280512E+04  -3.280512E+04  -3.280512E+04  -3.280512E+04  -3.280512E+04  -3.280512E+04  -3.280512E+04  -3.280512E+04  -3.280512E+04  -3.280512E+04  -3.280512E+04  -3.280512E+04  -3.280512E+04  -3.280512E+04  -3.280512E+04  -3.280512E+04  -3.280512E+04  -3.280512E+04  -3.280512E+04  -3.280512E+04  -3.280512E+04  -3.280512E+04  -3.280512E+04  -3.280512E+04  -3.280512E+04  -3.280512E+04  -3.280512E+04  -3.280512E+04  -3.280512E+04  -3.280512E+04  -3.280512E+04  -3.280512E+04  -3.280512E+04  -3.280512E+04  -3.280512E+04  -3.280512E+04  -3.280512E+04  -3.280512E+04  -3.280512E+04  -3.280512E+04  -3.280512E+04  -3.280512E+04  -3.280512E+04  -3.280512E+04  -3.280512E+04  -3.280512E+04  -3.280512E+04  -3.280512E+04  -3.280512E+04  -3.280512E+04  -3.280512E+04  -3.280512E+04  -3.280512E+04  -3.280512E+04  -3.280512E+04  -3.280512E+04  -3.280512E+04  -3.280512E+04  -3.280512E+04  -3.280512E+04  -3.280512E+04  -3.280512E+04  -3.280512E+04  -3.280512E+04  -3.280512E+04  -3.280512E+04  -3.280512E+04  -3.280512E+04  -3.280512E+04  -3.280512E+04  -3.280512E+04  -3.280512E+04  -3.280512E+04  -3.280512E+04  -3.280512E+04  -3.280512E+04  -3.280512E+04  -3.280512E+04  -3.280512E+04  -3.280512E+04  -3.280512E+04  -3.280512E+04  -3.280512E+04  -3.280512E+04  -3.280512E+04  -3.280512E+04  -3.280512E+04  -3.280512E+04  -3.280512E+04  -3.280512E+04  -3.280512E+04  -3.280512E+04  -3.280512E+04  -3.280512E+04  -3.280512E+04  -3.280512E+04  -3.280512E+04  -3.280512E+04  -3.280512E+04  -3.280512E+04  -3.280512E+04  -3.280512E+04  -3.280512E+04  -3.280512E+04  -3.280512E+04  -3.280512E+04  -3.280512E+04  -3.280512E+04  -3.280512E+04  -3.280512E+04  -3.280512E+04  -3.280512E+04  -3.280512E+04  -3.280512E+04  -3.280512E+04  -3.280512E+04  -3.280512E+04  -3.280512E+04  -3.280512E+04  -3.280512E+04  -3.280512E+04  -3.280512E+04  -3.280512E+04  -3.280512E+04  -3.280512E+04  -3.280512E+04  -3.280512E+04  -3.280512E+04  -3.280512E+04  -3.280512E+04  -3.280512E+04
  -3.280512E+04  -3.280512E+04  -3.280512E+04  -3.280512E+04  -3.280512E+04  -3.280512E+04  -3.280512E+04  -3.280512E+04  -3.280512E+04  -3.280512E+04  -3.280512E+04  -3.280512E+04  -3.280512E+04  -3.280512E+04  -3.280512E+04  -3.280512E+04  -3.280512E+04  -3.280512E+04  -3.280512E+04  -3.280512E+04  -3.280512E+04  -3.280512E+04  -3.280512E+04  -3.280512E+04  -3.280512E+04  -3.280512E+04  -3.280512E+04  -3.280512E+04  -3.280512E+04  -3.280512E+04  -3.280512E+04  -3.280512E+04  -3.280512E+04  -3.280512E+04  -3.280512E+04  -3.280512E+04  -3.280512E+04  -3.280512E+04  -3.280512E+04  -3.280512E+04  -3.280512E+04  -3.280512E+04  -3.280512E+04  -3.280512E+04  -3.280512E+04  -3.280512E+04  -3.280512E+04  -3.280512E+04  -3.280512E+04  -3.280512E+04  -3.280512E+04  -3.280512E+04  -3.280512E+04  -3.280512E+04  -3.280512E+04  -3.280512E+04  -3.280512E+04  -3.280512E+04  -3.280512E+04  -3.280512E+04  -3.280512E+04  -3.280512E+04  -3.280512E+04  -3.280512E+04  -3.280512E+04  -3.280512E+04  -3.280512E+04  -3.280512E+04  -3.280512E+04  -3.280512E+04  -3.280512E+04  -3.280512E+04  -3.280512E+04  -3.280512E+04  -3.280512E+04  -3.280512E+04  -3.280512E+04  -3.280512E+04  -3.280512E+04  -3.280512E+04  -3.280512E+04  -3.280512E+04  -3.280512E+04  -3.280512E+04  -3.280512E+04  -3.280512E+04  -3.280512E+04  -3.280512E+04  -3.280512E+04  -3.280512E+04  -3.280512E+04  -3.280512E+04  -3.280512E+04  -3.280512E+04  -3.280512E+04  -3.280512E+04  -3.280512E+04  -3.280512E+04  -3.280512E+04  -3.280512E+04  -3.280512E+04  -3.280512E+04  -3.280512E+04  -3.280512E+04  -3.280512E+04  -3.280512E+04  -3.280512E+04  -3.280512E+04  -3.280512E+04  -3.280512E+04  -3.280512E+04  -3.280512E+04  -3.280512E+04  -3.280512E+04  -3.280512E+04  -3.280512E+04  -3.280512E+04  -3.280512E+04  -3.280512E+04  -3.280512E+04  -3.280512E+04  -3.280512E+04  -3.280512E+04  -3.280512E+04  -3.280512E+04  -3.280512E+04  -3.280512E+04  -3.280512E+04  -3.280512E+04  -3.280512E+04  -3.280512E+04  -3.280512E+04  -3.280512E+04  -3.280512E+04  -3.280512E+04  -3.280512E+04  -3.280512E+04  -3.280512E+04  -3.280512E+04  -3.280512E+04  -3.280512E+04  -3.280512E+04  -3.280512E+04  -3.280512E+04  -3.280512E+04  -3.280512E+04  -3.280512E+04  -3.280512E+04  -3.280512E+04  -3.280512E+04  -3.280512E+04  -3.280512E+04  -3.280512E+04  -3.280512E+04  -3.280512E+04  -3.280512E+04  -3.280512E+04  -3.280512E+04  -3.280512E+04  -3.280512E+04  -3.280512E+04  -3.280512E+04  -3.280512E+04  -3.280512E+04  -3.280512E+04  -3.280512E+04  -3.280512E+04  -3.280512E+04  -3.280512E+04  -3.280512E+04  -3.280512E+04  -3.280512E+04  -3.280512E+04  -3.280512E+04  -3.280512E+04  -3.280512E+04  -3.280512E+04  -3.280512E+04  -3.280512E+04  -3.280512E+04  -3.280512E+04  -3.280512E+04  -3.280512E+04  -3.280512E+04  -3.280512E+04  -3.280512E+04  -3.280512E+04  -3.280512E+04  -3.280512E+04  -3.280512E+04  -3.280512E+04  -3.280512E+04  -3.280512E+04  -3.280512E+04  -3.280512E+04  -3.280512E+04  -3.280512E+04  -3.280512E+04  -3.280512E+04  -3.280512E+04  -3.280512E+04  -3.280512E+04  -3.280512E+04  -3.280512E+04  -3.280512E+04  -3.280512E+04  -3.280512E+04  -3.280512E+04  -3.280512E+04  -3.280512E+04  -3.280512E+04  -3.280512E+04  -3.280512E+04  -3.280512E+04  -3.280512E+04  -3.280512E+04  -3.280512E+04  -3.280512E+04  -3.280512E+04  -3.280512E+04  -3.280512E+04  -3.280512E+04  -3.280512E+04  -3.280512E+04  -3.280512E+04  -3.280512E+04  -3.280512E+04  -3.280512E+04  -3.280512E+04  -3.280512E+04  -3.280512E+04  -3.280512E+04  -3.280512E+04  -3.280512E+04  -3.280512E+04  -3.280512E+04  -3.280512E+04
  -3.280512E+04  -3.280512E+04  -3.280512E+04  -3.280512E+04  -3.280512E+04  -3.280512E+04  -3.280512E+04  -3.280512E+04  -3.280512E+04  -3.280512E+04  -3.280512E+04  -3.280512E+04  -3.280512E+04  -3.280512E+04  -3.280512E+04  -3.280512E+04  -3.280512E+04  -3.280512E+04  -3.280512E+04  -3.280512E+04  -3.280512E+04  -3.280512E+04  -3.280512E+04  -3.280512E+04  -3.280512E+04  -3.280512E+04  -3.280512E+04  -3.280512E+04  -3.280512E+04  -3.280512E+04  -3.280512E+04  -3.280512E+04  -3.280512E+04  -3.280512E+04  -3.280512E+04  -3.280512E+04  -3.280512E+04  -3.280512E+04  -3.280512E+04  -3.280512E+04  -3.280512E+04  -3.280512E+04  -3.280512E+04  -3.280512E+04  -3.280512E+04  -3.280512E+04  -3.280512E+04  -3.280512E+04  -3.280512E+04  -3.280512E+04  -3.280512E+04  -3.280512E+04  -3.280512E+04  -3.280512E+04  -3.280512E+04  -3.280512E+04  -3.280512E+04  -3.280512E+04  -3.280512E+04  -3.280512E+04  -3.280512E+04  -3.280512E+04  -3.280512E+04  -3.280512E+04  -3.280512E+04  -3.280512E+04  -3.280512E+04  -3.280512E+04  -3.280512E+04  -3.280512E+04  -3.280512E+04  -3.280512E+04  -3.280512E+04  -3.280512E+04  -3.280512E+04  -3.280512E+04  -3.280512E+04  -3.280512E+04  -3.280512E+04  -3.280512E+04  -3.280512E+04  -3.280512E+04  -3.280512E+04  -3.280512E+04  -3.280512E+04  -3.280512E+04  -3.280512E+04  -3.280512E+04  -3.280512E+04  -3.280512E+04  -3.280512E+04  -3.280512E+04  -3.280512E+04  -3.280512E+04  -3.280512E+04  -3.280512E+04  -3.280512E+04  -3.280512E+04  -3.280512E+04  -3.280512E+04  -3.280512E+04  -3.280512E+04  -3.280512E+04  -3.280512E+04  -3.280512E+04  -3.280512E+04  -3.280512E+04  -3.280512E+04  -3.280512E+04  -3.280512E+04  -3.280512E+04  -3.280512E+04  -3.280512E+04  -3.280512E+04  -3.280512E+04  -3.280512E+04  -3.280512E+04  -3.280512E+04  -3.280512E+04  -3.280512E+04  -3.280512E+04  -3.280512E+04  -3.280512E+04  -3.280512E+04  -3.280512E+04  -3.280512E+04  -3.280512E+04  -3.280512E+04  -3.280512E+04  -3.280512E+04  -3.280512E+04  -3.280512E+04  -3.280512E+04  -3.280512E+04  -3.280512E+04  -3.280512E+04  -3.280512E+04  -3.280512E+04  -3.280512E+04  -3.280512E+04  -3.280512E+04  -3.280512E+04  -3.280512E+04  -3.280512E+04  -3.280512E+04  -3.280512E+04  -3.280512E+04  -3.280512E+04  -3.280512E+04  -3.280512E+04  -3.280512E+04  -3.280512E+04  -3.280512E+04  -3.280512E+04  -3.280512E+04  -3.280512E+04  -3.280512E+04  -3.280512E+04  -3.280512E+04  -3.280512E+04  -3.280512E+04  -3.280512E+04  -3.280512E+04  -3.280512E+04  -3.280512E+04  -3.280512E+04  -3.280512E+04  -3.280512E+04  -3.280512E+04  -3.280512E+04  -3.280512E+04  -3.280512E+04  -3.280512E+04  -3.280512E+04  -3.280512E+04  -3.280512E+04  -3.280512E+04  -3.280512E+04  -3.280512E+04  -3.280512E+04  -3.280512E+04  -3.280512E+04  -3.280512E+04  -3.280512E+04   5.328008E+03  -3.280512E+04  -3.280512E+04  -3.280512E+04  -3.280512E+04  -3.280512E+04  -3.280512E+04  -3.280512E+04  -3.280512E+04  -3.280512E+04  -3.280512E+04  -3.280512E+04  -3.280512E+04  -3.280512E+04  -3.280512E+04  -3.280512E+04  -3.280512E+04  -3.280512E+04  -3.280512E+04  -3.280512E+04  -3.280512E+04  -3.280512E+04  -3.280512E+04  -3.280512E+04  -3.280512E+04  -3.280512E+04  -3.280512E+04  -3.280512E+04  -3.280512E+04  -3.280512E+04  -3.280512E+04  -3.280512E+04  -3.280512E+04  -3.280512E+04  -3.280512E+04  -3.280512E+04  -3.280512E+04  -3.280512E+04  -3.280512E+04  -3.280512E+04  -3.280512E+04  -3.280512E+04  -3.280512E+04  -3.280512E+04  -3.280512E+04  -3.280512E+04  -3.280512E+04  -3.280512E+04  -3.280512E+04  -3.280512E+04  -3.280512E+04  -3.280512E+04  -3.280512E+04
  -3.280512E+04  -3.280512E+04  -3.280512E+04  -3.280512E+04  -3.280512E+04  -3.280512E+04  -3.280512E+04  -3.280512E+04  -3.280512E+04  -3.280512E+04  -3.280512E+04  -3.280512E+04  -3.280512E+04  -3.280512E+04  -3.280512E+04  -3.280512E+04  -3.280512E+04  -3.280512E+04  -3.280512E+04  -3.280512E+04  -3.280512E+04  -3.280512E+04  -3.280512E+04  -3.280512E+04  -3.280512E+04  -3.280512E+04  -3.280512E+04  -3.280512E+04  -3.280512E+04  -3.280512E+04  -3.280512E+04  -3.280512E+04  -3.280512E+04  -3.280512E+04  -3.280512E+04  -3.280512E+04  -3.280512E+04  -3.280512E+04  -3.280512E+04  -3.280512E+04  -3.280512E+04  -3.280512E+04  -3.280512E+04  -3.280512E+04  -3.280512E+04  -3.280512E+04  -3.280512E+04  -3.280512E+04  -3.280512E+04  -3.280512E+04  -3.280512E+04  -3.280512E+04  -3.280512E+04  -3.280512E+04  -3.280512E+04  -3.280512E+04  -3.280512E+04  -3.280512E+04  -3.280512E+04  -3.280512E+04  -3.280512E+04  -3.280512E+04  -3.280512E+04  -3.280512E+04  -3.280512E+04  -3.280512E+04  -3.280512E+04  -3.280512E+04  -3.280512E+04  -3.280512E+04  -3.280512E+04  -3.280512E+04  -3.280512E+04  -3.280512E+04  -3.280512E+04  -3.280512E+04  -3.280512E+04  -3.280512E+04  -3.280512E+04  -3.280512E+04  -3.280512E+04  -3.280512E+04  -3.280512E+04  -3.280512E+04  -3.280512E+04  -3.280512E+04  -3.280512E+04  -3.280512E+04  -3.280512E+04  -3.280512E+04  -3.280512E+04  -3.280512E+04  -3.280512E+04  -3.280512E+04  -3.280512E+04  -3.280512E+04  -3.280512E+04  -3.280512E+04  -3.280512E+04  -3.280512E+04  -3.280512E+04  -3.280512E+04  -3.280512E+04  -3.280512E+04  -3.280512E+04  -3.280512E+04  -3.280512E+04  -3.280512E+04  -3.280512E+04  -3.280512E+04  -3.280512E+04  -3.280512E+04  -3.280512E+04  -3.280512E+04  -3.280512E+04  -3.280512E+04  -3.280512E+04  -3.280512E+04  -3.280512E+04  -3.280512E+04  -3.280512E+04  -3.280512E+04  -3.280512E+04  -3.280512E+04  -3.280512E+04  -3.280512E+04  -3.280512E+04  -3.280512E+04  -3.280512E+04  -3.280512E+04  -3.280512E+04  -3.280512E+04  -3.280512E+04  -3.280512E+04  -3.280512E+04  -3.280512E+04  -3.280512E+04  -3.280512E+04  -3.280512E+04  -3.280512E+04  -3.280512E+04  -3.280512E+04  -3.280512E+04  -3.280512E+04  -3.280512E+04  -3.280512E+04  -3.280512E+04  -3.280512E+04  -3.280512E+04  -3.280512E+04  -3.280512E+04  -3.280512E+04  -3.280512E+04  -3.280512E+04  -3.280512E+04  -3.280512E+04  -3.280512E+04  -3.280512E+04  -3.280512E+04  -3.280512E+04  -3.280512E+04  -3.280512E+04  -3.280512E+04  -3.280512E+04  -3.280512E+04  -3.280512E+04  -3.280512E+04  -3.280512E+04  -3.280512E+04  -3.280512E+04  -3.280512E+04  -3.280512E+04  -3.280512E+04  -3.280512E+04  -3.280512E+04  -3.280512E+04  -3.280512E+04  -3.280512E+04  -3.280512E+04  -3.280512E+04  -3.280512E+04  -3.280512E+04  -3.280512E+04   5.471004E+03   5.331404E+03   5.164048E+03  -3.280512E+04  -3.280512E+04  -3.280512E+04  -3.280512E+04  -3.280512E+04  -3.280512E+04  -3.280512E+04  -3.280512E+04  -3.280512E+04  -3.280512E+04  -3.280512E+04  -3.280512E+04  -3.280512E+04  -3.280512E+04  -3.280512E+04  -3.280512E+04  -3.280512E+04  -3.280512E+04  -3.280512E+04  -3.280512E+04  -3.280512E+04  -3.280512E+04  -3.280512E+04  -3.280512E+04  -3.280512E+04  -3.280512E+04  -3.280512E+04  -3.280512E+04  -3.280512E+04  -3.280512E+04  -3.280512E+04  -3.280512E+04  -3.280512E+04  -3.280512E+04  -3.280512E+04  -3.280512E+04  -3.280512E+04  -3.280512E+04  -3.280512E+04  -3.280512E+04  -3.280512E+04  -3.280512E+04  -3.280512E+04  -3.280512E+04  -3.280512E+04  -3.280512E+04  -3.280512E+04  -3.280512E+04  -3.280512E+04  -3.280512E+04  -3.280512E+04
  -3.280512E+04  -3.280512E+04  -3.280512E+04  -3.280512E+04  -3.280512E+04  -3.280512E+04  -3.280512E+04  -3.280512E+04  -3.280512E+04  -3.280512E+04  -3.280512E+04  -3.280512E+04  -3.280512E+04  -3.280512E+04  -3.280512E+04  -3.280512E+04  -3.280512E+04  -3.280512E+04  -3.280512E+04  -3.280512E+04  -3.280512E+04  -3.280512E+04  -3.280512E+04  -3.280512E+04  -3.280512E+04  -3.280512E+04  -3.280512E+04  -3.280512E+04  -3.280512E+04  -3.280512E+04  -3.280512E+04  -3.280512E+04  -3.280512E+04  -3.280512E+04  -3.280512E+04  -3.280512E+04  -3.280512E+04  -3.280512E+04  -3.280512E+04  -3.280512E+04  -3.280512E+04  -3.280512E+04  -3.280512E+04  -3.280512E+04  -3.280512E+04  -3.280512E+04  -3.280512E+04  -3.280512E+04  -3.280512E+04  -3.280512E+04  -3.280512E+04  -3.280512E+04  -3.280512E+04  -3.280512E+04  -3.280512E+04  -3.280512E+04  -3.280512E+04  -3.280512E+04  -3.280512E+04  -3.280512E+04  -3.280512E+04  -3.280512E+04  -3.280512E+04  -3.280512E+04  -3.280512E+04  -3.280512E+04  -3.280512E+04  -3.280512E+04  -3.280512E+04  -3.280512E+04  -3.280512E+04  -3.280512E+04  -3.280512E+04  -3.280512E+04  -3.280512E+04  -3.280512E+04  -3.280512E+04  -3.280512E+04  -3.280512E+04  -3.280512E+04  -3.280512E+04  -3.280512E+04  -3.280512E+04  -3.280512E+04  -3.280512E+04  -3.280512E+04  -3.280512E+04  -3.280512E+04  -3.280512E+04  -3.280512E+04  -3.280512E+04  -3.280512E+04  -3.280512E+04  -3.280512E+04  -3.280512E+04  -3.280512E+04  -3.280512E+04  -3.280512E+04  -3.280512E+04  -3.280512E+04  -3.280512E+04  -3.280512E+04  -3.280512E+04  -3.280512E+04  -3.280512E+04  -3.280512E+04  -3.280512E+04  -3.280512E+04  -3.280512E+04  -3.280512E+04  -3.280512E+04  -3.280512E+04  -3.280512E+04  -3.280512E+04  -3.280512E+04  -3.280512E+04  -3.280512E+04  -3.280512E+04  -3.280512E+04  -3.280512E+04  -3.280512E+04  -3.280512E+04  -3.280512E+04  -3.280512E+04  -3.280512E+04  -3.280512E+04  -3.280512E+04  -3.280512E+04  -3.280512E+04  -3.280512E+04  -3.280512E+04  -3.280512E+04  -3.280512E+04  -3.280512E+04  -3.280512E+04  -3.280512E+04  -3.280512E+04  -3.280512E+04  -3.280512E+04  -3.280512E+04  -3.280512E+04  -3.280512E+04  -3.280512E+04  -3.280512E+04  -3.280512E+04  -3.280512E+04  -3.280512E+04  -3.280512E+04  -3.280512E+04  -3.280512E+04  -3.280512E+04  -3.280512E+04  -3.280512E+04  -3.280512E+04  -3.280512E+04  -3.280512E+04  -3.280512E+04  -3.280512E+04  -3.280512E+04  -3.280512E+04  -3.280512E+04  -3.280512E+04  -3.280512E+04  -3.280512E+04  -3.280512E+04  -3.280512E+04  -3.280512E+04  -3.280512E+04  -3.280512E+04  -3.280512E+04  -3.280512E+04  -3.280512E+04  -3.280512E+04  -3.280512E+04  -3.280512E+04  -3.280512E+04  -3.280512E+04  -3.280512E+04  -3.280512E+04  -3.280512E+04  -3.280512E+04  -3.280512E+04  -3.280512E+04   5.666570E+03   5.370630E+03   5.091985E+03   4.978331E+03   5.068055E+03   5.260245E+03   5.440577E+03   5.583163E+03   5.814031E+03  -3.280512E+04  -3.280512E+04  -3.280512E+04  -3.280512E+04  -3.280512E+04  -3.280512E+04  -3.280512E+04  -3.280512E+04  -3.280512E+04  -3.280512E+04  -3.280512E+04  -3.280512E+04  -3.280512E+04  -3.280512E+04  -3.280512E+04  -3.280512E+04  -3.280512E+04  -3.280512E+04  -3.280512E+04  -3.280512E+04  -3.280512E+04  -3.280512E+04  -3.280512E+04  -3.280512E+04  -3.280512E+04  -3.280512E+04  -3.280512E+04  -3.280512E+04  -3.280512E+04  -3.280512E+04  -3.280512E+04  -3.280512E+04  -3.280512E+04  -3.280512E+04  -3.280512E+04  -3.280512E+04  -3.280512E+04  -3.280512E+04  -3.280512E+04  -3.280512E+04  -3.280512E+04  -3.280512E+04  -3.280512E+04  -3.280512E+04  -3.280512E+04
  -3.280512E+04  -3.280512E+04  -3.280512E+04  -3.280512E+04  -3.280512E+04  -3.280512E+04  -3.280512E+04  -3.280512E+04  -3.280512E+04  -3.280512E+04  -3.280512E+04  -3.280512E+04  -3.280512E+04  -3.280512E+04  -3.280512E+04  -3.280512E+04  -3.280512E+04  -3.280512E+04  -3.280512E+04  -3.280512E+04  -3.280512E+04  -3.280512E+04  -3.280512E+04  -3.280512E+04  -3.280512E+04  -3.280512E+04  -3.280512E+04  -3.280512E+04  -3.280512E+04  -3.280512E+04  -3.280512E+04  -3.280512E+04  -3.280512E+04  -3.280512E+04  -3.280512E+04  -3.280512E+04  -3.280512E+04  -3.280512E+04  -3.280512E+04  -3.280512E+04  -3.280512E+04  -3.280512E+04  -3.280512E+04  -3.280512E+04  -3.280512E+04  -3.280512E+04  -3.280512E+04  -3.280512E+04  -3.280512E+04  -3.280512E+04  -3.280512E+04  -3.280512E+04  -3.280512E+04  -3.280512E+04  -3.280512E+04  -3.280512E+04  -3.280512E+04  -3.280512E+04  -3.280512E+04  -3.280512E+04  -3.280512E+04  -3.280512E+04  -3.280512E+04  -3.280512E+04  -3.280512E+04  -3.280512E+04  -3.280512E+04  -3.280512E+04  -3.280512E+04  -3.280512E+04  -3.280512E+04  -3.280512E+04  -3.280512E+04  -3.280512E+04  -3.280512E+04  -3.280512E+04  -3.280512E+04  -3.280512E+04  -3.280512E+04  -3.280512E+04  -3.280512E+04  -3.280512E+04  -3.280512E+04  -3.280512E+04  -3.280512E+04  -3.280512E+04  -3.280512E+04  -3.280512E+04  -3.280512E+04  -3.280512E+04  -3.280512E+04  -3.280512E+04  -3.280512E+04  -3.280512E+04  -3.280512E+04  -3.280512E+04  -3.280512E+04  -3.280512E+04  -3.280512E+04  -3.280512E+04  -3.280512E+04  -3.280512E+04  -3.280512E+04  -3.280512E+04  -3.280512E+04  -3.280512E+04  -3.280512E+04  -3.280512E+04  -3.280512E+04  -3.280512E+04  -3.280512E+04  -3.280512E+04  -3.280512E+04  -3.280512E+04  -3.280512E+04  -3.280512E+04  -3.280512E+04  -3.280512E+04  -3.280512E+04  -3.280512E+04  -3.280512E+04  -3.280512E+04  -3.280512E+04  -3.280512E+04  -3.280512E+04  -3.280512E+04  -3.280512E+04  -3.280512E+04  -3.280512E+04  -3.280512E+04  -3.280512E+04  -3.280512E+04  -3.280512E+04  -3.280512E+04  -3.280512E+04  -3.280512E+04  -3.280512E+04  -3.280512E+04  -3.280512E+04  -3.280512E+04  -3.280512E+04  -3.280512E+04  -3.280512E+04  -3.280512E+04  -3.280512E+04  -3.280512E+04  -3.280512E+04  -3.280512E+04  -3.280512E+04  -3.280512E+04  -3.280512E+04  -3.280512E+04  -3.280512E+04  -3.280512E+04  -3.280512E+04  -3.280512E+04  -3.280512E+04  -3.280512E+04  -3.280512E+04  -3.280512E+04  -3.280512E+04  -3.280512E+04  -3.280512E+04  -3.280512E+04  -3.280512E+04  -3.280512E+04  -3.280512E+04  -3.280512E+04  -3.280512E+04  -3.280512E+04  -3.280512E+04  -3.280512E+04  -3.280512E+04  -3.280512E+04  -3.280512E+04  -3.280512E+04  -3.280512E+04  -3.280512E+04  -3.280512E+04  -3.280512E+04  -3.280512E+04  -3.280512E+04  -3.280512E+04   5.713093E+03   5.443060E+03   5.154439E+03   4.944970E+03   4.886342E+03   5.128393E+03   5.375303E+03   5.596655E+03   5.686117E+03   5.933969E+03  -3.280512E+04  -3.280512E+04  -3.280512E+04  -3.280512E+04  -3.280512E+04  -3.280512E+04  -3.280512E+04  -3.280512E+04  -3.280512E+04  -3.280512E+04  -3.280512E+04  -3.280512E+04  -3.280512E+04  -3.280512E+04  -3.280512E+04  -3.280512E+04  -3.280512E+04  -3.280512E+04  -3.280512E+04  -3.280512E+04  -3.280512E+04  -3.280512E+04  -3.280512E+04  -3.280512E+04  -3.280512E+04  -3.280512E+04  -3.280512E+04  -3.280512E+04  -3.280512E+04  -3.280512E+04  -3.280512E+04  -3.280512E+04  -3.280512E+04  -3.280512E+04  -3.280512E+04  -3.280512E+04  -3.280512E+04  -3.280512E+04  -3.280512E+04  -3.280512E+04  -3.280512E+04  -3.280512E+04  -3.280512E+04  -3.280512E+04