# SFR package for  MODFLOW-NWT, generated by Flopy.
REACHINPUT
1696 170 0 0 128390.40000000 0.00010000 1 81 1 
1 9 188 1 1 492.126 4689.5103 0.4716808 2.0 18.8851
1 10 188 1 2 593.83203 4614.124 0.5532523 2.0 18.8851
1 11 187 1 3 593.83203 4540.061 0.5401507 2.0 18.8851
1 12 187 1 4 593.83203 4504.9707 0.64661247 2.0 18.8851
1 13 188 1 5 593.83203 4373.0933 0.59404415 2.0 18.8851
1 14 188 1 6 492.126 4288.1377 0.61948407 2.0 18.8851
1 15 188 1 7 593.83203 4169.539 0.57959163 2.0 18.8851
1 16 187 1 8 593.83203 4048.6392 0.714282 2.0 18.8851
1 17 187 1 9 492.126 3937.079 0.6415586 2.0 18.8851
1 18 187 1 10 593.83203 3823.6184 0.34363934 2.0 18.8851
1 19 186 1 11 695.5381 3715.0166 0.14706911 2.0 18.8851
1 13 177 2 1 695.5381 3839.5396 0.4128817 2.0 6.0286164
1 14 176 2 2 695.5381 3732.6072 0.35468844 2.0 6.0286164
1 15 175 2 3 695.5381 3585.948 0.21700221 2.0 6.0286164
1 16 174 2 4 695.5381 3492.0337 0.12175155 2.0 6.0286164
1 17 173 2 5 695.5381 3421.9194 0.09337642 2.0 6.0286164
1 18 172 2 6 695.5381 3367.3225 0.08315084 2.0 6.0286164
1 19 171 2 7 695.5381 3315.7156 0.10348331 2.0 6.0286164
1 20 170 2 8 695.5381 3250.654 0.10719779 2.0 6.0286164
1 21 169 2 9 593.83203 3196.6863 0.098790936 2.0 6.0286164
1 21 168 2 10 492.126 3161.6357 0.09316692 2.0 6.0286164
1 21 167 2 11 593.83203 3133.2568 0.0937796 2.0 6.0286164
1 22 166 2 12 593.83203 3088.8132 0.102348275 2.0 6.0286164
1 22 165 2 13 492.126 3058.1465 0.10149173 2.0 6.0286164
1 22 164 2 14 492.126 3030.5706 0.06458456 2.0 6.0286164
1 22 163 2 15 492.126 3001.4646 0.055903096 2.0 6.0286164
1 22 162 2 16 492.126 2975.61 0.05906148 2.0 6.0286164
1 22 161 2 17 492.126 2952.7659 0.051309373 2.0 6.0286164
1 22 160 2 18 492.126 2928.5676 0.04561701 2.0 6.0286164
1 22 159 2 19 492.126 2911.633 0.045280248 2.0 6.0286164
1 22 158 2 20 492.126 2888.6516 0.04677104 2.0 6.0286164
1 22 157 2 21 492.126 2870.199 0.043654133 2.0 6.0286164
1 22 156 2 22 492.126 2847.3838 0.04616614 2.0 6.0286164
1 22 155 2 23 492.126 2828.4526 0.05423796 2.0 6.0286164
1 22 154 2 24 492.126 2806.2754 0.04379218 2.0 6.0286164
1 22 153 2 25 492.126 2779.028 0.08990164 2.0 6.0286164
1 22 152 2 26 492.126 2757.7576 0.06405454 2.0 6.0286164
1 22 151 2 27 492.126 2731.201 0.059645966 2.0 6.0286164
1 20 14 3 1 839.895 1062.6323 0.010349897 2.0 9.879585
1 20 13 3 2 492.126 1061.7266 0.007912851 2.0 9.879585
1 20 12 3 3 593.83203 1056.5709 0.02181808 2.0 9.879585
1 19 11 3 4 593.83203 1045.3926 0.015973536 2.0 9.879585
1 19 10 3 5 492.126 1042.5233 0.006653989 2.0 9.879585
1 19 9 3 6 492.126 1040.9725 0.008584279 2.0 9.879585
1 19 8 3 7 593.83203 1037.0564 0.013739029 2.0 9.879585
1 18 7 3 8 695.5381 1031.8024 0.035505746 2.0 9.879585
1 17 6 3 9 695.5381 1022.2561 0.0065190755 2.0 9.879585
1 16 5 3 10 695.5381 1018.03345 0.013870791 2.0 9.879585
1 15 4 3 11 695.5381 1009.234 0.018331023 2.0 9.879585
1 14 3 3 12 593.83203 1002.28784 0.011155953 2.0 9.879585
1 15 168 4 1 695.5381 3263.3823 0.11987343 2.0 6.0286164
1 16 167 4 2 593.83203 3200.7744 0.12562916 2.0 6.0286164
1 16 166 4 3 593.83203 3158.866 0.12820014 2.0 6.0286164
1 17 165 4 4 695.5381 3099.8398 0.10207821 2.0 6.0286164
1 18 164 4 5 695.5381 3049.2336 0.07294139 2.0 6.0286164
1 19 163 4 6 593.83203 3018.3696 0.05612667 2.0 6.0286164
1 19 162 4 7 492.126 2990.9722 0.056258477 2.0 6.0286164
1 19 161 4 8 492.126 2964.3408 0.053553984 2.0 6.0286164
1 19 160 4 9 492.126 2940.7295 0.04690294 2.0 6.0286164
1 19 159 4 10 492.126 2917.779 0.05273669 2.0 6.0286164
1 19 158 4 11 492.126 2889.692 0.05442046 2.0 6.0286164
1 19 157 4 12 492.126 2867.7107 0.047896076 2.0 6.0286164
1 19 156 4 13 492.126 2844.4746 0.04754003 2.0 6.0286164
1 19 155 4 14 492.126 2823.6628 0.060100365 2.0 6.0286164
1 19 154 4 15 492.126 2798.962 0.04461124 2.0 6.0286164
1 17 199 5 1 695.5381 5146.9214 0.573762 2.0 18.8851
1 16 198 5 2 593.83203 5038.6025 0.5563907 2.0 18.8851
1 16 197 5 3 492.126 4905.6104 0.40284824 2.0 18.8851
1 16 196 5 4 593.83203 4844.252 0.5441173 2.0 18.8851
1 15 195 5 5 695.5381 4724.371 0.51857764 2.0 18.8851
1 16 194 5 6 695.5381 4617.043 0.745487 2.0 18.8851
1 17 193 5 7 695.5381 4405.869 0.72012174 2.0 18.8851
1 18 192 5 8 593.83203 4162.6006 0.5826765 2.0 18.8851
1 18 191 5 9 593.83203 4062.796 0.64650303 2.0 18.8851
1 19 190 5 10 593.83203 3922.101 0.49436098 2.0 18.8851
1 19 189 5 11 593.83203 3860.2961 0.29451108 2.0 18.8851
1 20 188 5 12 593.83203 3790.838 0.2415602 2.0 18.8851
1 20 187 5 13 492.126 3741.2202 0.18685727 2.0 18.8851
1 20 186 5 14 492.126 3689.3147 0.15085395 2.0 18.8851
1 16 206 6 1 492.126 5495.543 0.7536703 2.0 18.8851
1 17 206 6 2 492.126 5349.436 0.6187056 2.0 18.8851
1 18 206 6 3 492.126 5223.433 0.69042945 2.0 18.8851
1 19 206 6 4 593.83203 5129.5156 0.6982714 2.0 18.8851
1 20 205 6 5 695.5381 5042.7827 0.52383566 2.0 18.8851
1 21 204 6 6 593.83203 4866.0044 0.6022605 2.0 18.8851
1 17 159 7 1 695.5381 2925.7239 0.06372707 2.0 6.0286164
1 18 158 7 2 593.83203 2892.8042 0.059446 2.0 6.0286164
1 18 157 7 3 492.126 2874.4302 0.04394454 2.0 6.0286164
1 18 156 7 4 492.126 2855.4697 0.045907244 2.0 6.0286164
1 18 155 7 5 492.126 2832.7788 0.06915627 2.0 6.0286164
1 18 154 7 6 593.83203 2803.7915 0.05181768 2.0 6.0286164
1 17 211 8 1 695.5381 6286.303 0.8303228 2.0 18.8851
1 18 210 8 2 695.5381 5946.4946 0.7924332 2.0 18.8851
1 19 209 8 3 695.5381 5595.2 0.7373408 2.0 18.8851
1 20 208 8 4 695.5381 5354.26 0.65373415 2.0 18.8851
1 21 207 8 5 593.83203 5121.891 0.6058852 2.0 18.8851
1 21 206 8 6 492.126 5012.4277 0.593962 2.0 18.8851
1 21 205 8 7 593.83203 4877.517 0.61837023 2.0 18.8851
1 18 178 9 1 492.126 3546.4834 0.114157386 2.0 18.8851
1 19 178 9 2 593.83203 3498.161 0.10920043 2.0 18.8851
1 20 177 9 3 695.5381 3447.4922 0.0731004 2.0 18.8851
1 21 176 9 4 695.5381 3393.081 0.08939391 2.0 18.8851
1 22 175 9 5 593.83203 3344.688 0.09354213 2.0 18.8851
1 19 153 10 1 941.6011 2775.0315 0.055899344 2.0 6.0286164
1 20 152 10 2 695.5381 2756.3708 0.05713995 2.0 6.0286164
1 21 151 10 3 695.5381 2727.1318 0.06290186 2.0 6.0286164
1 35 39 11 1 941.6011 1237.2047 0.036268167 2.0 9.879585
1 34 39 11 2 593.83203 1224.3357 0.02403905 2.0 9.879585
1 33 38 11 3 593.83203 1221.8319 0.019788738 2.0 9.879585
1 32 38 11 4 593.83203 1214.5826 0.018446004 2.0 9.879585
1 31 37 11 5 695.5381 1202.5543 0.015318911 2.0 9.879585
1 30 36 11 6 593.83203 1199.048 0.015472147 2.0 9.879585
1 30 35 11 7 593.83203 1191.9628 0.027187778 2.0 9.879585
1 29 34 11 8 593.83203 1182.8878 0.011291523 2.0 9.879585
1 29 33 11 9 593.83203 1180.8159 0.013343017 2.0 9.879585
1 28 32 11 10 593.83203 1170.9712 0.02773343 2.0 9.879585
1 28 31 11 11 593.83203 1165.4375 0.026893506 2.0 9.879585
1 27 30 11 12 593.83203 1160.6268 0.009584578 2.0 9.879585
1 27 29 11 13 593.83203 1158.4039 0.01567014 2.0 9.879585
1 26 28 11 14 593.83203 1144.1915 0.01681635 2.0 9.879585
1 26 27 11 15 593.83203 1143.4691 0.01726251 2.0 9.879585
1 25 26 11 16 593.83203 1140.8024 0.012305456 2.0 9.879585
1 25 25 11 17 492.126 1135.5133 0.021053115 2.0 9.879585
1 25 24 11 18 492.126 1127.0502 0.028348012 2.0 9.879585
1 25 23 11 19 593.83203 1125.0541 0.020068182 2.0 9.879585
1 24 22 11 20 695.5381 1117.0377 0.016734095 2.0 9.879585
1 23 21 11 21 695.5381 1104.8611 0.018005976 2.0 9.879585
1 22 20 11 22 593.83203 1101.057 0.008661488 2.0 9.879585
1 22 19 11 23 593.83203 1093.61 0.031977516 2.0 9.879585
1 21 18 11 24 593.83203 1084.2507 0.015695231 2.0 9.879585
1 21 17 11 25 593.83203 1082.0944 0.007796779 2.0 9.879585
1 20 16 11 26 593.83203 1075.6699 0.018797856 2.0 9.879585
1 20 15 11 27 492.126 1066.7356 0.02241799 2.0 9.879585
1 20 26 12 1 492.126 1120.8271 0.010664093 2.0 9.879585
1 20 25 12 2 593.83203 1116.2117 0.010171479 2.0 9.879585
1 21 24 12 3 695.5381 1114.8741 0.009743857 2.0 9.879585
1 20 23 12 4 695.5381 1107.8085 0.010667124 2.0 9.879585
1 19 22 12 5 695.5381 1100.743 0.009543717 2.0 9.879585
1 18 21 12 6 593.83203 1095.3058 0.009629683 2.0 9.879585
1 18 20 12 7 492.126 1090.9249 0.010048862 2.0 9.879585
1 18 19 12 8 492.126 1086.5223 0.014323177 2.0 9.879585
1 18 18 12 9 492.126 1080.8021 0.010532871 2.0 9.879585
1 18 17 12 10 492.126 1076.9495 0.010767947 2.0 9.879585
1 18 16 12 11 593.83203 1075.5884 0.024043577 2.0 9.879585
1 19 15 12 12 695.5381 1067.6412 0.015463773 2.0 9.879585
1 20 185 13 1 941.6011 3649.1567 0.14016792 2.0 18.8851
1 21 184 13 2 695.5381 3593.8591 0.10718277 2.0 18.8851
1 22 183 13 3 593.83203 3539.3516 0.11839275 2.0 18.8851
1 22 182 13 4 492.126 3523.5913 0.13882227 2.0 18.8851
1 22 181 13 5 593.83203 3496.806 0.1506848 2.0 18.8851
1 23 180 13 6 593.83203 3437.486 0.10014379 2.0 18.8851
1 23 179 13 7 492.126 3405.8352 0.10787514 2.0 18.8851
1 23 178 13 8 492.126 3377.5251 0.10780444 2.0 18.8851
1 23 177 13 9 492.126 3360.764 0.11803388 2.0 18.8851
1 23 176 13 10 492.126 3323.6362 0.11372279 2.0 18.8851
1 22 150 14 1 839.895 2715.622 0.0677116 2.0 6.0286164
1 22 149 14 2 593.83203 2700.2324 0.14309737 2.0 6.0286164
1 23 148 14 3 695.5381 2678.4443 0.08830872 2.0 6.0286164
1 24 147 14 4 695.5381 2641.3228 0.08230309 2.0 6.0286164
1 25 146 14 5 695.5381 2636.793 0.061161216 2.0 6.0286164
1 26 145 14 6 593.83203 2625.864 0.12964945 2.0 6.0286164
1 27 145 14 7 492.126 2584.305 0.13013124 2.0 6.0286164
1 28 145 14 8 593.83203 2569.0847 0.1356662 2.0 6.0286164
1 29 144 14 9 695.5381 2555.8962 0.123877436 2.0 6.0286164
1 30 143 14 10 695.5381 2534.8794 0.115602195 2.0 6.0286164
1 22 204 15 1 941.6011 4717.32 0.5818602 2.0 18.8851
1 23 203 15 2 695.5381 4682.5557 0.561446 2.0 18.8851
1 24 202 15 3 593.83203 4475.5024 0.28423676 2.0 18.8851
1 24 201 15 4 492.126 4422.4287 0.2414823 2.0 18.8851
1 24 200 15 5 593.83203 4366.3364 0.22021982 2.0 18.8851
1 25 199 15 6 593.83203 4303.9854 0.17493013 2.0 18.8851
1 25 198 15 7 492.126 4244.9604 0.12907663 2.0 18.8851
1 25 197 15 8 492.126 4201.468 0.09397314 2.0 18.8851
1 25 196 15 9 492.126 4155.58 0.108803935 2.0 18.8851
1 25 195 15 10 492.126 4110.514 0.12414254 2.0 18.8851
1 25 194 15 11 492.126 4059.7463 0.116840355 2.0 18.8851
1 25 193 15 12 492.126 4024.9263 0.115675725 2.0 18.8851
1 25 192 15 13 593.83203 3986.209 0.14670388 2.0 18.8851
1 23 175 16 1 839.895 3301.4016 0.11291274 2.0 18.8851
1 24 174 16 2 593.83203 3268.8948 0.10590249 2.0 18.8851
1 24 173 16 3 492.126 3245.8303 0.094559565 2.0 18.8851
1 24 172 16 4 492.126 3217.3567 0.07758126 2.0 18.8851
1 24 171 16 5 492.126 3198.7925 0.050945528 2.0 18.8851
1 24 170 16 6 593.83203 3178.5312 0.087748095 2.0 18.8851
1 25 169 16 7 593.83203 3144.9102 0.094600335 2.0 18.8851
1 25 168 16 8 593.83203 3120.1135 0.08752063 2.0 18.8851
1 26 167 16 9 593.83203 3083.8994 0.07149142 2.0 18.8851
1 26 166 16 10 492.126 3066.087 0.117202014 2.0 18.8851
1 26 165 16 11 492.126 3032.001 0.07909503 2.0 18.8851
1 26 164 16 12 593.83203 3010.7817 0.064701706 2.0 18.8851
1 27 163 16 13 593.83203 2981.5574 0.074805535 2.0 18.8851
1 27 162 16 14 492.126 2957.6545 0.06347899 2.0 18.8851
1 27 161 16 15 492.126 2931.957 0.07016833 2.0 18.8851
1 27 160 16 16 492.126 2914.197 0.056198385 2.0 18.8851
1 27 159 16 17 492.126 2886.0613 0.05153813 2.0 18.8851
1 27 158 16 18 492.126 2874.569 0.06299619 2.0 18.8851
1 27 157 16 19 492.126 2844.186 0.05798676 2.0 18.8851
1 27 156 16 20 492.126 2836.4521 0.05168534 2.0 18.8851
1 27 155 16 21 593.83203 2809.235 0.07923864 2.0 18.8851
1 28 154 16 22 593.83203 2780.0176 0.05149836 2.0 18.8851
1 28 153 16 23 593.83203 2763.0525 0.044731837 2.0 18.8851
1 29 152 16 24 695.5381 2729.5178 0.054976676 2.0 18.8851
1 30 151 16 25 695.5381 2697.3555 0.045080613 2.0 18.8851
1 31 150 16 26 593.83203 2666.4883 0.05098302 2.0 18.8851
1 32 150 16 27 593.83203 2648.4832 0.053599562 2.0 18.8851
1 24 222 17 1 492.126 6249.343 0.6222995 2.0 2.1175714
1 25 222 17 2 593.83203 6130.6323 0.52946514 2.0 2.1175714
1 26 221 17 3 593.83203 6030.0244 0.52174425 2.0 2.1175714
1 27 221 17 4 593.83203 5843.891 0.77405924 2.0 2.1175714
1 28 220 17 5 695.5381 5618.7217 0.9139278 2.0 2.1175714
1 29 219 17 6 695.5381 5398.267 0.69002986 2.0 2.1175714
1 30 218 17 7 695.5381 5217.825 0.41922113 2.0 2.1175714
1 31 217 17 8 695.5381 5104.178 0.19924207 2.0 2.1175714
1 32 216 17 9 593.83203 5028.1484 0.12501481 2.0 2.1175714
1 33 216 17 10 492.126 4972.162 0.11940842 2.0 2.1175714
1 34 216 17 11 593.83203 4916.906 0.10642122 2.0 2.1175714
1 35 215 17 12 695.5381 4853.863 0.11974221 2.0 2.1175714
1 36 214 17 13 593.83203 4798.529 0.13834593 2.0 2.1175714
1 37 214 17 14 593.83203 4743.9956 0.11777093 2.0 2.1175714
1 38 213 17 15 593.83203 4680.7827 0.16839667 2.0 2.1175714
1 39 213 17 16 593.83203 4627.0103 0.10757887 2.0 2.1175714
1 40 212 17 17 695.5381 4569.038 0.12597619 2.0 2.1175714
1 41 211 17 18 695.5381 4500.7207 0.0985258 2.0 2.1175714
1 25 127 18 1 492.126 2843.4739 0.37724683 2.0 0.003133582
1 26 127 18 2 492.126 2830.3772 0.3975303 2.0 0.003133582
1 27 127 18 3 492.126 2816.28 0.48591733 2.0 0.003133582
1 28 127 18 4 492.126 2769.3796 0.51258135 2.0 0.003133582
1 29 127 18 5 492.126 2670.5237 0.5443386 2.0 0.003133582
1 30 127 18 6 593.83203 2663.2817 0.67615646 2.0 0.003133582
1 31 128 18 7 695.5381 2608.922 0.6247486 2.0 0.003133582
1 32 129 18 8 593.83203 2605.5112 0.7002674 2.0 0.003133582
1 33 129 18 9 492.126 2464.5957 0.2661207 2.0 0.003133582
1 34 129 18 10 492.126 2423.3655 0.13537575 2.0 0.003133582
1 35 129 18 11 492.126 2385.4937 0.09272331 2.0 0.003133582
1 36 129 18 12 492.126 2351.3586 0.09976181 2.0 0.003133582
1 37 129 18 13 492.126 2312.0264 0.07082855 2.0 0.003133582
1 38 129 18 14 492.126 2282.9463 0.0664639 2.0 0.003133582
1 39 129 18 15 593.83203 2253.3047 0.082646646 2.0 0.003133582
1 40 128 18 16 593.83203 2228.267 0.040494017 2.0 0.003133582
1 25 214 19 1 695.5381 5476.7607 0.68344975 2.0 18.8851
1 26 213 19 2 695.5381 5301.3726 0.57107604 2.0 18.8851
1 27 212 19 3 695.5381 5163.0396 0.3217309 2.0 18.8851
1 28 211 19 4 593.83203 5027.6904 0.19346915 2.0 18.8851
1 28 210 19 5 593.83203 4979.6436 0.3095379 2.0 18.8851
1 29 209 19 6 593.83203 4871.8877 0.16733941 2.0 18.8851
1 29 208 19 7 492.126 4825.185 0.14253663 2.0 18.8851
1 29 207 19 8 593.83203 4784.1733 0.16987804 2.0 18.8851
1 28 206 19 9 695.5381 4688.935 0.14152162 2.0 18.8851
1 27 205 19 10 593.83203 4620.384 0.13152693 2.0 18.8851
1 27 204 19 11 492.126 4569.1753 0.103410415 2.0 18.8851
1 27 203 19 12 492.126 4515.7705 0.13043213 2.0 18.8851
1 27 202 19 13 492.126 4454.7925 0.12350105 2.0 18.8851
1 27 201 19 14 492.126 4397.577 0.1295447 2.0 18.8851
1 27 200 19 15 492.126 4342.221 0.116712 2.0 18.8851
1 27 199 19 16 492.126 4289.5396 0.12300628 2.0 18.8851
1 27 198 19 17 492.126 4234.0195 0.11640338 2.0 18.8851
1 27 197 19 18 492.126 4206.569 0.18772864 2.0 18.8851
1 25 230 20 1 695.5381 6703.9023 0.70650023 2.0 2.1175714
1 26 229 20 2 695.5381 6566.265 0.68520594 2.0 2.1175714
1 27 228 20 3 695.5381 6361.768 0.6601758 2.0 2.1175714
1 28 227 20 4 695.5381 6206.683 0.6484848 2.0 2.1175714
1 29 226 20 5 593.83203 6225.9414 0.7760332 2.0 2.1175714
1 29 225 20 6 593.83203 6013.0845 0.6829194 2.0 2.1175714
1 30 224 20 7 593.83203 5792.3203 0.6782152 2.0 2.1175714
1 30 223 20 8 492.126 5621.4487 0.647328 2.0 2.1175714
1 30 222 20 9 492.126 5491.075 0.72210115 2.0 2.1175714
1 30 221 20 10 492.126 5414.444 0.7092121 2.0 2.1175714
1 30 220 20 11 593.83203 5346.4546 0.69265974 2.0 2.1175714
1 31 219 20 12 695.5381 5201.414 0.46604642 2.0 2.1175714
1 32 218 20 13 695.5381 5100.919 0.3836528 2.0 2.1175714
1 33 217 20 14 593.83203 4982.8584 0.115757436 2.0 2.1175714
1 34 217 20 15 492.126 4926.7417 0.124429435 2.0 2.1175714
1 35 217 20 16 593.83203 4887.9595 0.13917516 2.0 2.1175714
1 36 216 20 17 593.83203 4830.039 0.08427766 2.0 2.1175714
1 37 216 20 18 593.83203 4794.4966 0.09131037 2.0 2.1175714
1 38 215 20 19 695.5381 4773.101 0.30202785 2.0 2.1175714
1 39 214 20 20 695.5381 4699.2324 0.32756668 2.0 2.1175714
1 40 213 20 21 695.5381 4599.5654 0.12593535 2.0 2.1175714
1 41 212 20 22 695.5381 4535.7656 0.10429944 2.0 2.1175714
1 42 211 20 23 695.5381 4486.377 0.18871793 2.0 2.1175714
1 43 210 20 24 695.5381 4415.1807 0.12822492 2.0 2.1175714
1 26 191 21 1 839.895 3924.7205 0.09686463 2.0 18.8851
1 26 190 21 2 492.126 3883.577 0.1459878 2.0 18.8851
1 26 189 21 3 492.126 3847.0942 0.19874793 2.0 18.8851
1 26 188 21 4 492.126 3809.1746 0.18413848 2.0 18.8851
1 26 187 21 5 492.126 3757.9443 0.13598077 2.0 18.8851
1 26 186 21 6 492.126 3714.2715 0.11395282 2.0 18.8851
1 26 185 21 7 492.126 3676.3254 0.10124899 2.0 18.8851
1 26 184 21 8 593.83203 3643.8118 0.07524451 2.0 18.8851
1 27 183 21 9 593.83203 3609.4937 0.11398333 2.0 18.8851
1 27 182 21 10 593.83203 3565.6978 0.09146315 2.0 18.8851
1 28 181 21 11 593.83203 3523.988 0.08391044 2.0 18.8851
1 28 180 21 12 593.83203 3490.9778 0.07184445 2.0 18.8851
1 27 196 22 1 839.895 4172.252 0.32821977 2.0 18.8851
1 27 195 22 2 492.126 4124.5625 0.27805045 2.0 18.8851
1 27 194 22 3 593.83203 4092.2644 0.3396796 2.0 18.8851
1 26 193 22 4 593.83203 4010.4285 0.08289743 2.0 18.8851
1 26 192 22 5 492.126 3963.9255 0.09862524 2.0 18.8851
1 27 139 23 1 695.5381 2862.4775 0.5751015 2.0 6.0286164
1 28 140 23 2 695.5381 2733.662 0.24237102 2.0 6.0286164
1 29 141 23 3 695.5381 2592.257 0.15701991 2.0 6.0286164
1 30 142 23 4 593.83203 2539.8015 0.08155849 2.0 6.0286164
1 28 135 24 1 492.126 2892.6226 0.67854685 2.0 0.003133582
1 29 135 24 2 593.83203 2826.2522 0.60427666 2.0 0.003133582
1 30 136 24 3 593.83203 2716.93 0.6623092 2.0 0.003133582
1 31 136 24 4 492.126 2609.2002 0.5700192 2.0 0.003133582
1 32 136 24 5 593.83203 2538.0193 0.24738155 2.0 0.003133582
1 33 137 24 6 593.83203 2473.3823 0.12476531 2.0 0.003133582
1 33 138 24 7 492.126 2446.3325 0.10568545 2.0 0.003133582
1 31 205 25 1 492.126 4642.3403 0.24283957 2.0 18.8851
1 31 204 25 2 593.83203 4595.1157 0.30448633 2.0 18.8851
1 30 203 25 3 593.83203 4577.152 0.20088933 2.0 18.8851
1 30 202 25 4 492.126 4484.7324 0.3060103 2.0 18.8851
1 30 201 25 5 593.83203 4457.011 0.41087443 2.0 18.8851
1 29 200 25 6 695.5381 4379.4526 0.281322 2.0 18.8851
1 28 199 25 7 593.83203 4308.3433 0.2495466 2.0 18.8851
1 28 198 25 8 492.126 4273.581 0.34874177 2.0 18.8851
1 28 197 25 9 593.83203 4251.6855 0.37997156 2.0 18.8851
1 29 179 26 1 839.895 3446.8428 0.08030773 2.0 18.8851
1 29 178 26 2 492.126 3413.71 0.077438 2.0 18.8851
1 29 177 26 3 492.126 3384.5332 0.0736042 2.0 18.8851
1 29 176 26 4 593.83203 3362.7085 0.08746332 2.0 18.8851
1 30 175 26 5 593.83203 3325.1628 0.069563836 2.0 18.8851
1 30 174 26 6 492.126 3291.9038 0.08787384 2.0 18.8851
1 30 173 26 7 492.126 3260.7708 0.093447976 2.0 18.8851
1 30 172 26 8 492.126 3229.744 0.08996921 2.0 18.8851
1 30 171 26 9 492.126 3200.1406 0.07086887 2.0 18.8851
1 30 170 26 10 492.126 3168.6558 0.10834574 2.0 18.8851
1 30 169 26 11 492.126 3136.3591 0.11332379 2.0 18.8851
1 30 168 26 12 492.126 3115.505 0.103378005 2.0 18.8851
1 30 167 26 13 492.126 3082.2805 0.14444202 2.0 18.8851
1 30 166 26 14 593.83203 3041.6157 0.12543693 2.0 18.8851
1 31 165 26 15 593.83203 3019.4656 0.13599738 2.0 18.8851
1 31 164 26 16 492.126 2980.869 0.08366089 2.0 18.8851
1 31 163 26 17 492.126 2954.708 0.0747808 2.0 18.8851
1 31 162 26 18 593.83203 2935.4155 0.098854266 2.0 18.8851
1 32 161 26 19 593.83203 2889.3389 0.086617224 2.0 18.8851
1 32 160 26 20 492.126 2865.9 0.07066498 2.0 18.8851
1 32 159 26 21 492.126 2841.146 0.062385235 2.0 18.8851
1 32 158 26 22 492.126 2826.229 0.07424391 2.0 18.8851
1 32 157 26 23 492.126 2802.5173 0.069969475 2.0 18.8851
1 32 156 26 24 492.126 2774.6118 0.08768393 2.0 18.8851
1 32 155 26 25 492.126 2749.2356 0.07646925 2.0 18.8851
1 32 154 26 26 492.126 2721.2878 0.046965916 2.0 18.8851
1 32 153 26 27 492.126 2705.862 0.058681898 2.0 18.8851
1 32 152 26 28 593.83203 2686.7039 0.05575072 2.0 18.8851
1 33 151 26 29 593.83203 2661.2905 0.063300334 2.0 18.8851
1 33 150 26 30 492.126 2637.8464 0.050764043 2.0 18.8851
1 34 186 27 1 695.5381 3936.451 0.30265966 2.0 18.8851
1 33 185 27 2 593.83203 3918.3784 0.4446073 2.0 18.8851
1 32 185 27 3 593.83203 3801.886 0.31037167 2.0 18.8851
1 31 184 27 4 593.83203 3779.7483 0.39135575 2.0 18.8851
1 30 184 27 5 593.83203 3701.9617 0.29662046 2.0 18.8851
1 29 183 27 6 593.83203 3624.6204 0.17481574 2.0 18.8851
1 29 182 27 7 492.126 3594.1282 0.24292278 2.0 18.8851
1 29 181 27 8 492.126 3551.0862 0.23242107 2.0 18.8851
1 29 180 27 9 492.126 3490.6165 0.13207483 2.0 18.8851
1 31 142 28 1 941.6011 2511.708 0.070855945 2.0 6.0286164
1 32 141 28 2 695.5381 2477.658 0.037187625 2.0 6.0286164
1 33 140 28 3 593.83203 2462.5195 0.05515911 2.0 6.0286164
1 33 139 28 4 593.83203 2446.221 0.0747989 2.0 6.0286164
1 33 149 29 1 941.6011 2615.5037 0.062612966 2.0 0.003133582
1 34 148 29 2 593.83203 2596.0308 0.06546592 2.0 0.003133582
1 34 147 29 3 492.126 2571.7173 0.061246667 2.0 0.003133582
1 34 146 29 4 492.126 2549.4778 0.054046106 2.0 0.003133582
1 34 145 29 5 492.126 2535.5273 0.07676012 2.0 0.003133582
1 34 144 29 6 593.83203 2519.2341 0.051801883 2.0 0.003133582
1 35 143 29 7 593.83203 2494.3125 0.04460686 2.0 0.003133582
1 35 142 29 8 492.126 2475.9346 0.033542614 2.0 0.003133582
1 35 141 29 9 492.126 2469.1636 0.04631504 2.0 0.003133582
1 35 140 29 10 492.126 2455.2295 0.049036555 2.0 0.003133582
1 35 139 29 11 492.126 2442.4207 0.07022724 2.0 0.003133582
1 34 121 30 1 695.5381 2436.831 0.4368177 2.0 0.003133582
1 35 120 30 2 593.83203 2353.0205 0.39148754 2.0 0.003133582
1 36 120 30 3 492.126 2320.5186 0.37712055 2.0 0.003133582
1 37 120 30 4 593.83203 2266.859 0.27838555 2.0 0.003133582
1 38 119 30 5 695.5381 2211.923 0.109392524 2.0 0.003133582
1 39 118 30 6 593.83203 2167.371 0.08402725 2.0 0.003133582
1 34 138 31 1 839.895 2427.9973 0.08030935 2.0 0.003133582
1 35 138 32 1 839.895 2420.651 0.12038627 2.0 0.003133582
1 36 137 32 2 695.5381 2386.7715 0.05644393 2.0 0.003133582
1 37 136 32 3 593.83203 2363.622 0.0648918 2.0 0.003133582
1 37 135 32 4 593.83203 2377.5654 0.121601954 2.0 0.003133582
1 38 134 32 5 695.5381 2337.8533 0.07951051 2.0 0.003133582
4 45 34 33 1 695.5381 1563.1687 0.29140496 2.0 9.879585
4 44 35 33 2 593.83203 1516.1309 0.28885692 2.0 9.879585
1 43 35 33 3 492.126 1472.3545 0.1800026 2.0 9.879585
1 42 35 33 4 593.83203 1468.1128 0.25324398 2.0 9.879585
1 41 34 33 5 593.83203 1428.2155 0.27799684 2.0 9.879585
1 40 34 33 6 593.83203 1403.9463 0.18360686 2.0 9.879585
1 39 35 33 7 695.5381 1366.4918 0.11964424 2.0 9.879585
1 38 36 33 8 695.5381 1326.002 0.0589515 2.0 9.879585
1 37 37 33 9 695.5381 1294.4928 0.04509275 2.0 9.879585
1 36 38 33 10 695.5381 1262.3737 0.044565547 2.0 9.879585
1 44 50 34 1 941.6011 1322.275 0.0336153 2.0 9.879585
1 43 49 34 2 593.83203 1316.1313 0.03290821 2.0 9.879585
1 42 49 34 3 593.83203 1311.0072 0.105843894 2.0 9.879585
1 41 48 34 4 593.83203 1300.4128 0.0761091 2.0 9.879585
1 41 47 34 5 492.126 1288.6066 0.050060604 2.0 9.879585
1 41 46 34 6 593.83203 1287.7998 0.03167452 2.0 9.879585
1 40 45 34 7 695.5381 1278.941 0.059056446 2.0 9.879585
1 39 44 34 8 593.83203 1262.8304 0.02315762 2.0 9.879585
1 39 43 34 9 593.83203 1262.4152 0.032769296 2.0 9.879585
1 38 42 34 10 695.5381 1248.5186 0.039673198 2.0 9.879585
1 37 41 34 11 695.5381 1243.3949 0.015609796 2.0 9.879585
1 36 40 34 12 695.5381 1240.7607 0.012573822 2.0 9.879585
1 36 157 35 1 492.126 2816.526 0.051201582 2.0 0.003133582
1 36 156 35 2 593.83203 2797.0574 0.051089864 2.0 0.003133582
1 37 155 35 3 593.83203 2761.7283 0.051862456 2.0 0.003133582
1 37 154 35 4 593.83203 2740.1106 0.05570077 2.0 0.003133582
1 38 153 35 5 593.83203 2714.4841 0.04183386 2.0 0.003133582
1 38 152 35 6 593.83203 2694.3533 0.044306125 2.0 0.003133582
1 39 151 35 7 695.5381 2667.595 0.045626584 2.0 0.003133582
1 40 150 35 8 695.5381 2638.8726 0.04408534 2.0 0.003133582
1 41 149 35 9 593.83203 2611.2886 0.043995176 2.0 0.003133582
1 41 148 35 10 492.126 2593.823 0.036242012 2.0 0.003133582
1 41 147 35 11 593.83203 2576.6777 0.04199342 2.0 0.003133582
1 42 146 35 12 695.5381 2555.146 0.037053388 2.0 0.003133582
1 43 145 35 13 593.83203 2525.774 0.042776447 2.0 0.003133582
1 43 144 35 14 492.126 2521.148 0.03177057 2.0 0.003133582
1 43 143 35 15 593.83203 2504.6177 0.057911843 2.0 0.003133582
1 44 142 35 16 593.83203 2480.2957 0.03114579 2.0 0.003133582
1 44 141 35 17 492.126 2466.003 0.040585674 2.0 0.003133582
1 44 140 35 18 492.126 2446.6257 0.039167836 2.0 0.003133582
1 44 139 35 19 593.83203 2433.486 0.043980915 2.0 0.003133582
1 45 138 35 20 593.83203 2403.7498 0.03718809 2.0 0.003133582
1 45 137 35 21 492.126 2395.5623 0.049085885 2.0 0.003133582
1 45 136 35 22 492.126 2371.411 0.07372705 2.0 0.003133582
1 45 135 35 23 492.126 2360.0718 0.04754962 2.0 0.003133582
1 45 134 35 24 593.83203 2345.5137 0.093462676 2.0 0.003133582
1 46 133 35 25 593.83203 2325.8704 0.047684494 2.0 0.003133582
1 46 132 35 26 492.126 2306.9204 0.12573309 2.0 0.003133582
1 46 131 35 27 492.126 2288.0203 0.07229862 2.0 0.003133582
1 46 130 35 28 492.126 2277.8926 0.08280837 2.0 0.003133582
1 46 129 35 29 593.83203 2264.6094 0.11219604 2.0 0.003133582
1 47 128 35 30 593.83203 2228.8745 0.13179377 2.0 0.003133582
1 47 127 35 31 492.126 2201.6404 0.15084805 2.0 0.003133582
1 47 126 35 32 492.126 2165.9297 0.06379103 2.0 0.003133582
1 47 125 35 33 492.126 2151.5122 0.053110883 2.0 0.003133582
1 38 139 36 1 492.126 2411.0623 0.056947675 2.0 0.003133582
1 38 138 36 2 492.126 2393.2983 0.036184065 2.0 0.003133582
1 38 137 36 3 593.83203 2377.978 0.03132326 2.0 0.003133582
1 39 136 36 4 593.83203 2358.1755 0.037211824 2.0 0.003133582
1 39 135 36 5 492.126 2344.7952 0.035698734 2.0 0.003133582
1 39 134 36 6 492.126 2328.1726 0.039764747 2.0 0.003133582
1 38 211 37 1 492.126 4659.7676 0.3433342 2.0 2.1175714
1 39 211 37 2 492.126 4628.7944 0.32113984 2.0 2.1175714
1 40 211 37 3 593.83203 4551.6816 0.24511516 2.0 2.1175714
1 41 210 37 4 593.83203 4535.7725 0.361866 2.0 2.1175714
1 38 229 38 1 492.126 5319.842 0.25001365 2.0 2.1175714
1 38 228 38 2 593.83203 5256.7676 0.24642229 2.0 2.1175714
1 39 227 38 3 695.5381 5148.285 0.28659132 2.0 2.1175714
1 40 226 38 4 593.83203 5080.6616 0.4061908 2.0 2.1175714
1 40 225 38 5 593.83203 5012.7026 0.30908075 2.0 2.1175714
1 41 224 38 6 593.83203 4993.412 0.41242737 2.0 2.1175714
1 41 223 38 7 492.126 4909.774 0.30969408 2.0 2.1175714
1 41 222 38 8 593.83203 4821.19 0.30665624 2.0 2.1175714
1 42 221 38 9 695.5381 4726.621 0.2610642 2.0 2.1175714
1 39 122 39 1 695.5381 2154.415 0.021230066 2.0 0.003133582
1 40 121 39 2 593.83203 2141.747 0.020407746 2.0 0.003133582
1 40 120 39 3 492.126 2142.2214 0.053046666 2.0 0.003133582
1 40 119 39 4 492.126 2137.8535 0.0823426 2.0 0.003133582
1 39 133 40 1 839.895 2310.0798 0.04047842 2.0 0.003133582
1 39 132 40 2 593.83203 2292.0654 0.058033615 2.0 0.003133582
1 40 131 40 3 593.83203 2271.6711 0.042251766 2.0 0.003133582
1 40 130 40 4 593.83203 2250.7249 0.059547927 2.0 0.003133582
1 41 129 40 5 593.83203 2238.9312 0.039233778 2.0 0.003133582
1 40 118 41 1 738.189 2129.2168 0.061540835 2.0 0.003133582
1 40 117 41 2 593.83203 2120.0894 0.03138943 2.0 0.003133582
1 41 116 41 3 593.83203 2110.0852 0.018880114 2.0 0.003133582
1 42 116 41 4 492.126 2101.588 0.020115025 2.0 0.003133582
1 43 116 41 5 492.126 2093.2515 0.018041603 2.0 0.003133582
1 44 116 41 6 492.126 2086.7776 0.017642401 2.0 0.003133582
1 45 116 41 7 492.126 2080.0166 0.016032748 2.0 0.003133582
1 46 116 41 8 492.126 2074.5535 0.015386184 2.0 0.003133582
1 47 116 41 9 492.126 2069.1045 0.017878652 2.0 0.003133582
1 48 116 41 10 492.126 2061.8254 0.018593473 2.0 0.003133582
1 49 116 41 11 492.126 2055.3198 0.018492643 2.0 0.003133582
1 50 116 41 12 492.126 2049.3464 0.02163861 2.0 0.003133582
1 51 116 41 13 492.126 2045.6783 0.021193355 2.0 0.003133582
1 40 221 42 1 695.5381 4836.583 0.17320406 2.0 2.1175714
1 41 220 42 2 593.83203 4765.1763 0.2866282 2.0 2.1175714
1 42 220 42 3 492.126 4695.449 0.324253 2.0 2.1175714
1 41 128 43 1 839.895 2216.7847 0.057672802 2.0 0.003133582
1 42 127 43 2 695.5381 2200.103 0.032644313 2.0 0.003133582
1 43 126 43 3 695.5381 2182.5645 0.026547976 2.0 0.003133582
1 44 125 43 4 695.5381 2165.583 0.030899217 2.0 0.003133582
1 45 124 43 5 593.83203 2140.3877 0.039814394 2.0 0.003133582
1 46 124 43 6 492.126 2131.8115 0.04222652 2.0 0.003133582
1 41 162 44 1 492.126 2984.9473 0.15356095 2.0 0.13846801
1 41 161 44 2 593.83203 2936.915 0.11922075 2.0 0.13846801
1 42 160 44 3 695.5381 2883.2737 0.08822297 2.0 0.13846801
1 43 159 44 4 695.5381 2826.8457 0.077856 2.0 0.13846801
1 44 158 44 5 695.5381 2773.6042 0.08239742 2.0 0.13846801
1 45 157 44 6 695.5381 2729.924 0.06475322 2.0 0.13846801
1 46 156 44 7 593.83203 2693.4312 0.055801302 2.0 0.13846801
1 46 155 44 8 492.126 2674.1584 0.04122316 2.0 0.13846801
1 46 154 44 9 593.83203 2660.225 0.052573763 2.0 0.13846801
1 47 153 44 10 695.5381 2628.9084 0.040394474 2.0 0.13846801
1 48 152 44 11 695.5381 2601.541 0.03742213 2.0 0.13846801
1 49 151 44 12 695.5381 2576.428 0.04134751 2.0 0.13846801
1 42 210 45 1 941.6011 4452.604 0.21901289 2.0 2.1175714
1 43 209 45 2 593.83203 4399.1855 0.18184409 2.0 2.1175714
1 43 177 46 1 492.126 3388.278 0.18782532 2.0 0.13846801
1 44 177 46 2 492.126 3344.7856 0.12874313 2.0 0.13846801
1 45 177 46 3 492.126 3313.1226 0.1458615 2.0 0.13846801
1 46 177 46 4 492.126 3270.7397 0.114160046 2.0 0.13846801
1 47 177 46 5 492.126 3243.421 0.14984533 2.0 0.13846801
1 48 177 46 6 492.126 3209.8313 0.17115226 2.0 0.13846801
1 49 177 46 7 492.126 3183.3005 0.20337568 2.0 0.13846801
1 43 198 47 1 695.5381 4306.994 0.2452621 2.0 2.1175714
1 44 199 47 2 695.5381 4240.7734 0.21532662 2.0 2.1175714
1 45 200 47 3 695.5381 4209.992 0.4090695 2.0 2.1175714
1 46 201 47 4 695.5381 4147.2373 0.36843428 2.0 2.1175714
1 47 202 47 5 695.5381 4124.6367 0.27451092 2.0 2.1175714
1 48 201 47 6 695.5381 4059.358 0.4650307 2.0 2.1175714
1 49 200 47 7 593.83203 4042.0625 0.3287834 2.0 2.1175714
1 50 200 47 8 593.83203 3948.3542 0.5190913 2.0 2.1175714
1 51 199 47 9 695.5381 3900.0083 0.537782 2.0 2.1175714
1 52 198 47 10 695.5381 3833.6646 0.49640104 2.0 2.1175714