# GHB package for  MODFLOW-NWT, generated by Flopy.
       528         1
       528         0 # stress period 0
         2        17       149   2.4306008E+03   2.0195447E+02
         2        16       149   2.4378169E+03   2.0195392E+02
         2        16       150   2.4565789E+03   2.4062457E+02
         2        16       151   2.4753411E+03   2.3225941E+02
         2        16       152   2.4941030E+03   2.2176392E+02
         2        15       153   2.5200813E+03   2.1936305E+02
         2        15       154   2.5388433E+03   2.1555136E+02
         2        14       155   2.5648215E+03   2.2383138E+02
         2        14       156   2.5835837E+03   2.1766670E+02
         2        14       157   2.6023457E+03   2.1669980E+02
         2        13       158   2.6283240E+03   2.1908846E+02
         2        13       159   2.6470859E+03   2.2036412E+02
         2        13       160   2.6658481E+03   2.1735471E+02
         2        12       161   2.6918262E+03   2.2341251E+02
         2        12       162   2.7105884E+03   2.3008710E+02
         3        17       149   2.4306008E+03   0.0000000E+00
         3        16       149   2.4378169E+03   0.0000000E+00
         3        16       150   2.4565789E+03   0.0000000E+00
         3        16       151   2.4753411E+03   0.0000000E+00
         3        16       152   2.4941030E+03   0.0000000E+00
         3        15       153   2.5200813E+03   0.0000000E+00
         3        15       154   2.5388433E+03   0.0000000E+00
         3        14       155   2.5648215E+03   0.0000000E+00
         3        14       156   2.5835837E+03   0.0000000E+00
         3        14       157   2.6023457E+03   0.0000000E+00
         3        13       158   2.6283240E+03   0.0000000E+00
         3        13       159   2.6470859E+03   0.0000000E+00
         3        13       160   2.6658481E+03   0.0000000E+00
         3        12       161   2.6918262E+03   0.0000000E+00
         3        12       162   2.7105884E+03   0.0000000E+00
         4        17       149   2.4306008E+03   0.0000000E+00
         4        16       149   2.4378169E+03   0.0000000E+00
         4        16       150   2.4565789E+03   0.0000000E+00
         4        16       151   2.4753411E+03   0.0000000E+00
         4        16       152   2.4941030E+03   0.0000000E+00
         4        15       153   2.5200813E+03   0.0000000E+00
         4        15       154   2.5388433E+03   0.0000000E+00
         4        14       155   2.5648215E+03   0.0000000E+00
         4        14       156   2.5835837E+03   0.0000000E+00
         4        14       157   2.6023457E+03   0.0000000E+00
         4        13       158   2.6283240E+03   0.0000000E+00
         4        13       159   2.6470859E+03   0.0000000E+00
         4        13       160   2.6658481E+03   0.0000000E+00
         4        12       161   2.6918262E+03   0.0000000E+00
         4        12       162   2.7105884E+03   0.0000000E+00
         2        52       107   1.7793909E+03   3.0829385E-04
         2        51       103   1.7700000E+03   3.1288015E-04
         2        51       104   1.7732994E+03   3.1567525E-04
         2        51       105   1.7765990E+03   3.1539469E-04
         2        51       106   1.7798984E+03   3.1464297E-04
         2        51       108   1.7864974E+03   3.1117653E-04
         2        50       109   1.7936040E+03   3.1202057E-04
         2        49       110   1.8007107E+03   3.1080461E-04
         2        48       111   1.8078173E+03   3.0845846E-04
         2        47       111   1.8116244E+03   3.0930026E-04
         2        46       111   1.8154315E+03   3.1014881E-04
         2        45       111   1.8192385E+03   3.1011997E-04
         3        52       107   1.7793909E+03   3.4826767E-04
         3        51       103   1.7700000E+03   8.6284716E-05
         3        51       104   1.7732994E+03   1.4157651E-04
         3        51       105   1.7765990E+03   1.9394440E-04
         3        51       106   1.7798984E+03   2.4806554E-04
         3        51       108   1.7864974E+03   3.0673109E-04
         3        50       109   1.7936040E+03   2.3720323E-04
         3        49       110   1.8007107E+03   2.0526168E-04
         3        48       111   1.8078173E+03   1.9385319E-04
         3        47       111   1.8116244E+03   1.5928478E-04
         3        46       111   1.8154315E+03   1.3353443E-04
         3        45       111   1.8192385E+03   1.1253334E-04
         4        52       107   1.7793909E+03   0.0000000E+00
         4        51       103   1.7700000E+03   0.0000000E+00
         4        51       104   1.7732994E+03   0.0000000E+00
         4        51       105   1.7765990E+03   0.0000000E+00
         4        51       106   1.7798984E+03   0.0000000E+00
         4        51       108   1.7864974E+03   0.0000000E+00
         4        50       109   1.7936040E+03   0.0000000E+00
         4        49       110   1.8007107E+03   0.0000000E+00
         4        48       111   1.8078173E+03   0.0000000E+00
         4        47       111   1.8116244E+03   0.0000000E+00
         4        46       111   1.8154315E+03   0.0000000E+00
         4        45       111   1.8192385E+03   0.0000000E+00
         1        40        48   1.1907228E+03   6.6602612E-03
         2        54        87   1.6272137E+03   8.3026467E-03
         2        54        88   1.6372273E+03   8.5465545E-03
         2        53        86   1.6153457E+03   7.5140554E-03
         2        53        89   1.6453865E+03   6.6294945E-03
         2        53        90   1.6554001E+03   6.5416205E-03
         2        53        91   1.6654137E+03   6.4742011E-03
         2        53        92   1.6754272E+03   6.3839331E-03
         2        53        94   1.6954545E+03   6.3044978E-03
         2        52        82   1.5734370E+03   5.5833319E-03
         2        52        83   1.5834507E+03   5.8947382E-03
         2        52        84   1.5934642E+03   6.2227878E-03
         2        52        85   1.6034778E+03   6.5750107E-03
         2        52        93   1.6835864E+03   6.1267964E-03
         2        52        95   1.7036136E+03   6.4065154E-03
         2        52        96   1.7136272E+03   6.1865891E-03
         2        51        81   1.5615691E+03   4.8522479E-03
         2        51        97   1.7217865E+03   5.0980425E-03
         2        51        98   1.7318000E+03   5.4174643E-03
         2        51        99   1.7418136E+03   5.5228532E-03
         2        50        78   1.5296740E+03   3.8229809E-03
         2        50        79   1.5396876E+03   4.1147298E-03
         2        50        80   1.5497012E+03   4.2564166E-03
         2        50       100   1.7499728E+03   5.0244853E-03
         2        50       101   1.7599865E+03   5.3653787E-03
         2        50       102   1.7700000E+03   5.7537421E-03
         2        49        77   1.5178060E+03   3.6180755E-03
         2        48        64   1.3857750E+03   3.8983456E-03
         2        48        65   1.3957887E+03   4.2217262E-03
         2        48        76   1.5059381E+03   3.5268252E-03
         2        47        63   1.3739071E+03   4.0401956E-03
         2        47        66   1.4039479E+03   4.1657360E-03
         2        47        74   1.4840565E+03   3.6785076E-03
         2        47        75   1.4940701E+03   3.5558844E-03
         2        47        76   1.5040837E+03   3.4661638E-03
         2        46        60   1.3420120E+03   3.2265612E-03
         2        46        61   1.3520256E+03   3.7151170E-03
         2        46        62   1.3620392E+03   3.9780443E-03
         2        46        67   1.4121071E+03   4.7296439E-03
         2        46        68   1.4221206E+03   4.7890502E-03
         2        46        69   1.4321343E+03   4.5163352E-03
         2        46        70   1.4421478E+03   5.0992775E-03
         2        46        71   1.4521614E+03   4.8004841E-03
         2        46        72   1.4621750E+03   3.8807353E-03
         2        46        73   1.4721886E+03   3.7694136E-03
         2        45        58   1.3201305E+03   3.1509488E-03
         2        45        59   1.3301440E+03   3.5344269E-03
         2        44        55   1.2882354E+03   3.0172502E-03
         2        44        56   1.2982489E+03   3.3723332E-03
         2        44        57   1.3082625E+03   3.6649965E-03
         2        43        52   1.2563402E+03   3.0390611E-03
         2        43        53   1.2663538E+03   3.2730990E-03
         2        43        54   1.2763674E+03   3.5220075E-03
         2        42        51   1.2444723E+03   3.5055424E-03
         2        41        50   1.2326044E+03   3.9924076E-03
         2        40        48   1.1907228E+03   1.9941141E-03
         2        40        49   1.2207363E+03   4.4025979E-03
         3        54        87   1.6272137E+03   6.3148895E-03
         3        54        88   1.6372273E+03   6.7248265E-03
         3        53        86   1.6153457E+03   2.9779128E-03
         3        53        89   1.6453865E+03   4.7451761E-03
         3        53        90   1.6554001E+03   4.4206330E-03
         3        53        91   1.6654137E+03   4.0245713E-03
         3        53        92   1.6754272E+03   3.3569862E-03
         3        53        94   1.6954545E+03   2.7128714E-03
         3        52        82   1.5734370E+03   8.0392102E-04
         3        52        83   1.5834507E+03   6.2067318E-04
         3        52        84   1.5934642E+03   5.8093632E-04
         3        52        85   1.6034778E+03   7.5283041E-04
         3        52        93   1.6835864E+03   3.2711794E-04
         3        52        95   1.7036136E+03   3.3905142E-04
         3        52        96   1.7136272E+03   5.7753024E-04
         3        51        81   1.5615691E+03   9.2349545E-04
         3        51        97   1.7217865E+03   3.2711431E-04
         3        51        98   1.7318000E+03   3.2711492E-04
         3        51        99   1.7418136E+03   3.2711949E-04
         3        50        78   1.5296740E+03   1.0755475E-03
         3        50        79   1.5396876E+03   5.6766468E-04
         3        50        80   1.5497012E+03   6.6172663E-04
         3        50       100   1.7499728E+03   3.2711917E-04
         3        50       101   1.7599865E+03   3.2711917E-04
         3        50       102   1.7700000E+03   3.2712010E-04
         3        49        77   1.5178060E+03   1.1635493E-03
         3        48        64   1.3857750E+03   2.6672061E-03
         3        48        65   1.3957887E+03   2.8721483E-03
         3        48        76   1.5059381E+03   1.4076752E-03
         3        47        63   1.3739071E+03   2.6872670E-03
         3        47        66   1.4039479E+03   4.1529322E-03
         3        47        74   1.4840565E+03   1.5662969E-03
         3        47        75   1.4940701E+03   1.2553334E-03
         3        47        76   1.5040837E+03   9.4189757E-04
         3        46        60   1.3420120E+03   2.0014141E-03
         3        46        61   1.3520256E+03   2.3790370E-03
         3        46        62   1.3620392E+03   2.4450615E-03
         3        46        67   1.4121071E+03   3.4461301E-03
         3        46        68   1.4221206E+03   4.5234701E-03
         3        46        69   1.4321343E+03   2.7577686E-03
         3        46        70   1.4421478E+03   1.6147908E-03
         3        46        71   1.4521614E+03   1.4049142E-03
         3        46        72   1.4621750E+03   1.8494525E-03
         3        46        73   1.4721886E+03   1.5079672E-03
         3        45        58   1.3201305E+03   1.9394144E-03
         3        45        59   1.3301440E+03   2.2146571E-03
         3        44        55   1.2882354E+03   1.6648783E-03
         3        44        56   1.2982489E+03   1.9781503E-03
         3        44        57   1.3082625E+03   2.2981497E-03
         3        43        52   1.2563402E+03   1.7075390E-03
         3        43        53   1.2663538E+03   1.8886204E-03
         3        43        54   1.2763674E+03   2.0586126E-03
         3        42        51   1.2444723E+03   2.1378831E-03
         3        41        50   1.2326044E+03   2.5635569E-03
         3        40        48   1.1907228E+03   3.2653618E-03
         3        40        49   1.2207363E+03   3.2438987E-03
         4        54        87   1.6272137E+03   0.0000000E+00
         4        54        88   1.6372273E+03   0.0000000E+00
         4        53        86   1.6153457E+03   0.0000000E+00
         4        53        89   1.6453865E+03   0.0000000E+00
         4        53        90   1.6554001E+03   0.0000000E+00
         4        53        91   1.6654137E+03   0.0000000E+00
         4        53        92   1.6754272E+03   0.0000000E+00
         4        53        94   1.6954545E+03   0.0000000E+00
         4        52        82   1.5734370E+03   0.0000000E+00
         4        52        83   1.5834507E+03   0.0000000E+00
         4        52        84   1.5934642E+03   0.0000000E+00
         4        52        85   1.6034778E+03   0.0000000E+00
         4        52        93   1.6835864E+03   0.0000000E+00
         4        52        95   1.7036136E+03   0.0000000E+00
         4        52        96   1.7136272E+03   0.0000000E+00
         4        51        81   1.5615691E+03   0.0000000E+00
         4        51        97   1.7217865E+03   0.0000000E+00
         4        51        98   1.7318000E+03   0.0000000E+00
         4        51        99   1.7418136E+03   0.0000000E+00
         4        50        78   1.5296740E+03   0.0000000E+00
         4        50        79   1.5396876E+03   0.0000000E+00
         4        50        80   1.5497012E+03   0.0000000E+00
         4        50       100   1.7499728E+03   0.0000000E+00
         4        50       101   1.7599865E+03   0.0000000E+00
         4        50       102   1.7700000E+03   0.0000000E+00
         4        49        77   1.5178060E+03   0.0000000E+00
         4        48        64   1.3857750E+03   2.5608654E-03
         4        48        65   1.3957887E+03   1.8103535E-03
         4        48        76   1.5059381E+03   0.0000000E+00
         4        47        63   1.3739071E+03   2.1334232E-03
         4        47        66   1.4039479E+03   0.0000000E+00
         4        47        74   1.4840565E+03   0.0000000E+00
         4        47        75   1.4940701E+03   0.0000000E+00
         4        47        76   1.5040837E+03   0.0000000E+00
         4        46        60   1.3420120E+03   3.3182646E-03
         4        46        61   1.3520256E+03   2.4120952E-03
         4        46        62   1.3620392E+03   1.6085001E-03
         4        46        67   1.4121071E+03   0.0000000E+00
         4        46        68   1.4221206E+03   0.0000000E+00
         4        46        69   1.4321343E+03   0.0000000E+00
         4        46        70   1.4421478E+03   0.0000000E+00
         4        46        71   1.4521614E+03   0.0000000E+00
         4        46        72   1.4621750E+03   0.0000000E+00
         4        46        73   1.4721886E+03   0.0000000E+00
         4        45        58   1.3201305E+03   3.7587334E-03
         4        45        59   1.3301440E+03   2.7467711E-03
         4        44        55   1.2882354E+03   4.7998214E-03
         4        44        56   1.2982489E+03   3.8786030E-03
         4        44        57   1.3082625E+03   2.9463030E-03
         4        43        52   1.2563402E+03   5.7673859E-03
         4        43        53   1.2663538E+03   4.7793076E-03
         4        43        54   1.2763674E+03   3.8357016E-03
         4        42        51   1.2444723E+03   4.7599901E-03
         4        41        50   1.2326044E+03   3.8655757E-03
         4        40        48   1.1907228E+03   4.8108003E-03
         4        40        49   1.2207363E+03   2.9805943E-03
         1        40        47   1.1907228E+03   9.2902523E+09
         1        39        46   1.1843689E+03   9.2290929E+09
         1        38        44   1.1740554E+03   9.1103744E+09
         1        38        45   1.1780151E+03   9.1492925E+09
         1        37        43   1.1677017E+03   9.0576753E+09
         1        36        42   1.1613478E+03   8.9847624E+09
         1        35        41   1.1549939E+03   8.9229906E+09
         1        34        41   1.1525997E+03   8.8860273E+09
         1        33        40   1.1462458E+03   8.8243149E+09
         1        32        39   1.1398921E+03   8.7644549E+09
         1        31        39   1.1374978E+03   8.7292815E+09
         1        30        38   1.1311440E+03   8.6792632E+09
         1        29        37   1.1247902E+03   8.6249185E+09
         1        28        36   1.1184363E+03   6.5435249E+09
         1        27        35   1.1120824E+03   6.0034550E+09
         1        26        35   1.1096882E+03   5.6407250E+09
         1        25        34   1.1033344E+03   5.1947290E+09
         1        24        33   1.0969806E+03   4.8233129E+09
         1        23        31   1.0866671E+03   4.3288064E+09
         1        23        32   1.0906267E+03   4.5576177E+09
         1        22        30   1.0803132E+03   4.1970432E+09
         1        21        28   1.0699998E+03   3.9799035E+09
         1        21        29   1.0739594E+03   4.1707651E+09
         1        20        24   1.0517670E+03   3.5710129E+09
         1        20        25   1.0557267E+03   3.7418181E+09
         1        20        26   1.0596863E+03   3.9153467E+09
         1        20        27   1.0636459E+03   4.0801019E+09
         1        19        22   1.0414535E+03   3.7384750E+09
         1        19        23   1.0454131E+03   3.8639662E+09
         1        18        20   1.0311400E+03   4.0891064E+09
         1        18        21   1.0350996E+03   4.1581146E+09
         1        17        17   1.0168669E+03   4.4604012E+09
         1        17        18   1.0208265E+03   4.4763305E+09
         1        17        19   1.0247861E+03   4.5315021E+09
         1        16         6   9.7091663E+02   6.1997962E+09
         1        16         7   9.7487628E+02   6.1355136E+09
         1        16         8   9.7883594E+02   6.0523878E+09
         1        16         9   9.8279553E+02   5.9388882E+09
         1        16        10   9.8675519E+02   5.7980355E+09
         1        16        11   9.9071484E+02   5.6471875E+09
         1        16        12   9.9467450E+02   5.4954563E+09
         1        16        13   9.9863416E+02   5.3476516E+09
         1        16        14   1.0025938E+03   5.2094945E+09
         1        16        15   1.0065534E+03   5.1127460E+09
         1        16        16   1.0105131E+03   5.0601907E+09
         1        15         5   9.6456281E+02   6.7709164E+09
         1        14         4   9.5820892E+02   7.2261535E+09
         2        40        47   1.1907228E+03   2.8754115E+09
         2        39        46   1.1843689E+03   2.8754115E+09
         2        38        44   1.1740554E+03   2.8754115E+09
         2        38        45   1.1780151E+03   2.8754115E+09
         2        37        43   1.1677017E+03   2.8754115E+09
         2        36        42   1.1613478E+03   2.8754115E+09
         2        35        41   1.1549939E+03   2.8754115E+09
         2        34        41   1.1525997E+03   2.8754115E+09
         2        33        40   1.1462458E+03   2.8754115E+09
         2        32        39   1.1398921E+03   2.8754115E+09
         2        31        39   1.1374978E+03   2.8754115E+09
         2        30        38   1.1311440E+03   2.8754115E+09
         2        29        37   1.1247902E+03   2.8754115E+09
         2        28        36   1.1184363E+03   4.0724260E+09
         2        27        35   1.1120824E+03   4.7804928E+09
         2        26        35   1.1096882E+03   5.1047798E+09
         2        25        34   1.1033344E+03   5.7555328E+09
         2        24        33   1.0969806E+03   6.3939994E+09
         2        23        31   1.0866671E+03   7.3893791E+09
         2        23        32   1.0906267E+03   6.9778811E+09
         2        22        30   1.0803132E+03   7.7448305E+09
         2        21        28   1.0699998E+03   8.4666143E+09
         2        21        29   1.0739594E+03   7.9332065E+09
         2        20        24   1.0517670E+03   6.8660163E+09
         2        20        25   1.0557267E+03   7.4619392E+09
         2        20        26   1.0596863E+03   8.1061857E+09
         2        20        27   1.0636459E+03   8.7960648E+09
         2        19        22   1.0414535E+03   6.2773222E+09
         2        19        23   1.0454131E+03   6.7935334E+09
         2        18        20   1.0311400E+03   5.9505536E+09
         2        18        21   1.0350996E+03   6.3679621E+09
         2        17        17   1.0168669E+03   5.7272653E+09
         2        17        18   1.0208265E+03   5.9879644E+09
         2        17        19   1.0247861E+03   6.2847954E+09
         2        16         6   9.7091663E+02   7.3328614E+09
         2        16         7   9.7487628E+02   6.8449260E+09
         2        16         8   9.7883594E+02   6.4159677E+09
         2        16         9   9.8279553E+02   6.0695137E+09
         2        16        10   9.8675519E+02   5.8220017E+09
         2        16        11   9.9071484E+02   5.6761139E+09
         2        16        12   9.9467450E+02   5.6302167E+09
         2        16        13   9.9863416E+02   5.6773985E+09
         2        16        14   1.0025938E+03   5.8047227E+09
         2        16        15   1.0065534E+03   5.9822213E+09
         2        16        16   1.0105131E+03   6.1947889E+09
         2        15         5   9.6456281E+02   8.5089838E+09
         2        14         4   9.5820892E+02   1.0063940E+10
         3        40        47   1.1907228E+03   4.7084861E+09
         3        39        46   1.1843689E+03   4.7084861E+09
         3        38        44   1.1740554E+03   4.7084861E+09
         3        38        45   1.1780151E+03   4.7084861E+09
         3        37        43   1.1677017E+03   4.7084861E+09
         3        36        42   1.1613478E+03   4.7084861E+09
         3        35        41   1.1549939E+03   4.7084861E+09
         3        34        41   1.1525997E+03   4.7084861E+09
         3        33        40   1.1462458E+03   4.7084861E+09
         3        32        39   1.1398921E+03   4.7084861E+09
         3        31        39   1.1374978E+03   4.7084861E+09
         3        30        38   1.1311440E+03   4.7084861E+09
         3        29        37   1.1247902E+03   4.7084861E+09
         3        28        36   1.1184363E+03   7.6485688E+09
         3        27        35   1.1120824E+03   7.5044081E+09
         3        26        35   1.1096882E+03   7.4632105E+09
         3        25        34   1.1033344E+03   7.5780690E+09
         3        24        33   1.0969806E+03   7.8586993E+09
         3        23        31   1.0866671E+03   8.5976381E+09
         3        23        32   1.0906267E+03   8.2408827E+09
         3        22        30   1.0803132E+03   8.9442509E+09
         3        21        28   1.0699998E+03   8.5790577E+09
         3        21        29   1.0739594E+03   9.1971983E+09
         3        20        24   1.0517670E+03   6.5404570E+09
         3        20        25   1.0557267E+03   7.0343516E+09
         3        20        26   1.0596863E+03   7.5231498E+09
         3        20        27   1.0636459E+03   7.9929866E+09
         3        19        22   1.0414535E+03   6.3943199E+09
         3        19        23   1.0454131E+03   6.7788237E+09
         3        18        20   1.0311400E+03   6.5088860E+09
         3        18        21   1.0350996E+03   6.7896079E+09
         3        17        17   1.0168669E+03   6.6073667E+09
         3        17        18   1.0208265E+03   6.7996820E+09
         3        17        19   1.0247861E+03   6.9947689E+09
         3        16         6   9.7091663E+02   7.1693056E+09
         3        16         7   9.7487628E+02   7.0227046E+09
         3        16         8   9.7883594E+02   6.9200041E+09
         3        16         9   9.8279553E+02   6.8552893E+09
         3        16        10   9.8675519E+02   6.8236201E+09
         3        16        11   9.9071484E+02   6.8255396E+09
         3        16        12   9.9467450E+02   6.8579912E+09
         3        16        13   9.9863416E+02   6.9159649E+09
         3        16        14   1.0025938E+03   6.9936061E+09
         3        16        15   1.0065534E+03   7.0989619E+09
         3        16        16   1.0105131E+03   7.2177275E+09
         3        15         5   9.6456281E+02   8.0006671E+09
         3        14         4   9.5820892E+02   1.0063940E+10
         4        40        47   1.1907228E+03   6.9369298E+09
         4        39        46   1.1843689E+03   6.9369298E+09
         4        38        44   1.1740554E+03   6.9369298E+09
         4        38        45   1.1780151E+03   6.9369298E+09
         4        37        43   1.1677017E+03   6.9369298E+09
         4        36        42   1.1613478E+03   6.9369298E+09
         4        35        41   1.1549939E+03   6.9369298E+09
         4        34        41   1.1525997E+03   6.9369298E+09
         4        33        40   1.1462458E+03   6.9369298E+09
         4        32        39   1.1398921E+03   6.9369298E+09
         4        31        39   1.1374978E+03   6.9369298E+09
         4        30        38   1.1311440E+03   6.9369298E+09
         4        29        37   1.1247902E+03   6.9369298E+09
         4        28        36   1.1184363E+03   1.7283383E+09
         4        27        35   1.1120824E+03   1.6135447E+09
         4        26        35   1.1096882E+03   1.6102883E+09
         4        25        34   1.1033344E+03   1.6630879E+09
         4        24        33   1.0969806E+03   1.8257423E+09
         4        23        31   1.0866671E+03   2.3706481E+09
         4        23        32   1.0906267E+03   2.0610666E+09
         4        22        30   1.0803132E+03   2.6270413E+09
         4        21        28   1.0699998E+03   1.2748494E+09
         4        21        29   1.0739594E+03   2.8050862E+09
         4        20        24   1.0517670E+03   8.2190259E+09
         4        20        25   1.0557267E+03   6.2747090E+09
         4        20        26   1.0596863E+03   4.4086600E+09
         4        20        27   1.0636459E+03   2.5715740E+09
         4        19        22   1.0414535E+03   1.0217796E+10
         4        19        23   1.0454131E+03   8.4386570E+09
         4        18        20   1.0311400E+03   1.1740363E+10
         4        18        21   1.0350996E+03   1.0003887E+10
         4        17        17   1.0168669E+03   1.4631171E+10
         4        17        18   1.0208265E+03   1.2942875E+10
         4        17        19   1.0247861E+03   1.1368163E+10
         4        16         6   9.7091663E+02   2.2492490E+10
         4        16         7   9.7487628E+02   2.2782181E+10
         4        16         8   9.7883594E+02   2.2973618E+10
         4        16         9   9.8279553E+02   2.2773006E+10
         4        16        10   9.8675519E+02   2.2418643E+10
         4        16        11   9.9071484E+02   2.1782235E+10
         4        16        12   9.9467450E+02   2.0652384E+10
         4        16        13   9.9863416E+02   1.9313347E+10
         4        16        14   1.0025938E+03   1.7726452E+10
         4        16        15   1.0065534E+03   1.6097158E+10
         4        16        16   1.0105131E+03   1.4426960E+10
         4        15         5   9.6456281E+02   2.1546988E+10
         4        14         4   9.5820892E+02   1.0063940E+10
         2       119       192   2.4779958E+03   1.7942167E-04
         2       118       191   2.4920459E+03   1.8799516E-04
         2       117       191   2.4849058E+03   2.0369244E-04
         2       116       190   2.4589558E+03   2.6439829E-04
         2       115       190   2.4518159E+03   3.2663459E-04
         2       114       190   2.4446758E+03   3.8986170E-04
         2       113       190   2.4375359E+03   4.4530295E-04
         2       112       190   2.4303960E+03   5.2128336E-04
         2       111       190   2.4232559E+03   5.8696175E-04
         2       110       190   2.4161160E+03   6.4838555E-04
         2       109       190   2.4089758E+03   7.0389424E-04
         2       108       189   2.4030259E+03   7.8662497E-04
         2       107       190   2.3946960E+03   7.8920717E-04
         2       106       190   2.3875559E+03   8.2152808E-04
         2       105       190   2.3804160E+03   8.5662073E-04
         2       104       191   2.3720859E+03   8.6687162E-04
         2       103       192   2.3637561E+03   8.9346472E-04
         2       102       193   2.3554260E+03   9.3901186E-04
         2       101       194   2.3470959E+03   9.8759320E-04
         2       100       195   2.3387661E+03   1.0377603E-03
         2        99       196   2.3304360E+03   1.0803399E-03
         2        98       196   2.3232961E+03   1.0855184E-03
         2        97       197   2.3149661E+03   1.1353041E-03
         2        96       198   2.3066360E+03   1.1708235E-03
         2        95       199   2.2983062E+03   1.2034520E-03
         2        94       200   2.2899761E+03   1.2300750E-03
         3       119       192   2.4779958E+03   7.7801914E-04
         3       118       191   2.4920459E+03   2.1139813E-04
         3       117       191   2.4849058E+03   2.0967583E-04
         3       116       190   2.4589558E+03   1.9734190E-04
         3       115       190   2.4518159E+03   1.9777792E-04
         3       114       190   2.4446758E+03   1.9841683E-04
         3       113       190   2.4375359E+03   2.1494324E-04
         3       112       190   2.4303960E+03   2.0918336E-04
         3       111       190   2.4232559E+03   2.1831620E-04
         3       110       190   2.4161160E+03   2.2805719E-04