# GHB package for  MODFLOW-NWT, generated by Flopy.
       563         1
       563         0 # stress period 0
         2        17       149   2.5900000E+03   2.6246704E+03
         2        16       149   2.5959277E+03   2.6246704E+03
         2        16       150   2.6113401E+03   3.7050195E+03
         2        16       151   2.6267527E+03   3.4712891E+03
         2        16       152   2.6421650E+03   3.1780396E+03
         2        15       153   2.6635051E+03   3.1109888E+03
         2        15       154   2.6789175E+03   3.0045703E+03
         2        14       155   2.7002578E+03   3.2358887E+03
         2        14       156   2.7156702E+03   3.0636304E+03
         2        14       157   2.7310825E+03   3.0365796E+03
         2        13       158   2.7524226E+03   3.1033301E+03
         2        13       159   2.7678350E+03   3.1389307E+03
         2        13       160   2.7832473E+03   3.0549487E+03
         2        12       161   2.8045876E+03   3.2240918E+03
         2        12       162   2.8200000E+03   3.4106909E+03
         3        17       149   2.5900000E+03   0.0000000E+00
         3        16       149   2.5959277E+03   0.0000000E+00
         3        16       150   2.6113401E+03   0.0000000E+00
         3        16       151   2.6267527E+03   0.0000000E+00
         3        16       152   2.6421650E+03   0.0000000E+00
         3        15       153   2.6635051E+03   0.0000000E+00
         3        15       154   2.6789175E+03   0.0000000E+00
         3        14       155   2.7002578E+03   0.0000000E+00
         3        14       156   2.7156702E+03   0.0000000E+00
         3        14       157   2.7310825E+03   0.0000000E+00
         3        13       158   2.7524226E+03   0.0000000E+00
         3        13       159   2.7678350E+03   0.0000000E+00
         3        13       160   2.7832473E+03   0.0000000E+00
         3        12       161   2.8045876E+03   0.0000000E+00
         3        12       162   2.8200000E+03   0.0000000E+00
         4        17       149   2.5900000E+03   0.0000000E+00
         4        16       149   2.5959277E+03   0.0000000E+00
         4        16       150   2.6113401E+03   0.0000000E+00
         4        16       151   2.6267527E+03   0.0000000E+00
         4        16       152   2.6421650E+03   0.0000000E+00
         4        15       153   2.6635051E+03   0.0000000E+00
         4        15       154   2.6789175E+03   0.0000000E+00
         4        14       155   2.7002578E+03   0.0000000E+00
         4        14       156   2.7156702E+03   0.0000000E+00
         4        14       157   2.7310825E+03   0.0000000E+00
         4        13       158   2.7524226E+03   0.0000000E+00
         4        13       159   2.7678350E+03   0.0000000E+00
         4        13       160   2.7832473E+03   0.0000000E+00
         4        12       161   2.8045876E+03   0.0000000E+00
         4        12       162   2.8200000E+03   0.0000000E+00
         2        52       107   1.7746210E+03   1.2581860E+04
         2        51       103   1.7657606E+03   1.2769033E+04
         2        51       104   1.7688737E+03   1.2883105E+04
         2        51       105   1.7719868E+03   1.2871655E+04
         2        51       106   1.7750999E+03   1.2840977E+04
         2        51       108   1.7813260E+03   1.2699507E+04
         2        50       109   1.7880312E+03   1.2733953E+04
         2        49       110   1.7947363E+03   1.2684328E+04
         2        48       111   1.8014415E+03   1.2588579E+04
         2        47       111   1.8050336E+03   1.2622934E+04
         2        46       111   1.8086256E+03   1.2657564E+04
         2        45       111   1.8122177E+03   1.2656387E+04
         2        44       110   1.8126965E+03   1.2406717E+04
         2        43       109   1.8131755E+03   1.1316382E+04
         2        42       109   1.8167676E+03   9.8650400E+03
         2        41       109   1.8203596E+03   8.3982402E+03
         2        40       109   1.8239517E+03   7.2644800E+03
         2        39       109   1.8275437E+03   6.3361401E+03
         2        38       109   1.8311357E+03   5.2328115E+03
         2        37       110   1.8378408E+03   4.2990488E+03
         2        37       111   1.8409540E+03   4.4184316E+03
         2        37       112   1.8440671E+03   4.6690283E+03
         2        37       113   1.8671802E+03   4.5237998E+03
         2        37       114   1.8702933E+03   4.6569214E+03
         3        52       107   1.7746210E+03   1.4213244E+04
         3        51       103   1.7657606E+03   3.5213879E+03
         3        51       104   1.7688737E+03   5.7779160E+03
         3        51       105   1.7719868E+03   7.9151162E+03
         3        51       106   1.7750999E+03   1.0123868E+04
         3        51       108   1.7813260E+03   1.2518080E+04
         3        50       109   1.7880312E+03   9.6805645E+03
         3        49       110   1.7947363E+03   8.3769883E+03
         3        48       111   1.8014415E+03   7.9113926E+03
         3        47       111   1.8050336E+03   6.5006128E+03
         3        46       111   1.8086256E+03   5.4497080E+03
         3        45       111   1.8122177E+03   4.5926279E+03
         3        44       110   1.8126965E+03   2.6779590E+03
         3        43       109   1.8131755E+03   0.0000000E+00
         3        42       109   1.8167676E+03   0.0000000E+00
         3        41       109   1.8203596E+03   0.0000000E+00
         3        40       109   1.8239517E+03   0.0000000E+00
         3        39       109   1.8275437E+03   0.0000000E+00
         3        38       109   1.8311357E+03   0.0000000E+00
         3        37       110   1.8378408E+03   0.0000000E+00
         3        37       111   1.8409540E+03   0.0000000E+00
         3        37       112   1.8440671E+03   0.0000000E+00
         3        37       113   1.8671802E+03   0.0000000E+00
         3        37       114   1.8702933E+03   0.0000000E+00
         4        52       107   1.7746210E+03   0.0000000E+00
         4        51       103   1.7657606E+03   0.0000000E+00
         4        51       104   1.7688737E+03   0.0000000E+00
         4        51       105   1.7719868E+03   0.0000000E+00
         4        51       106   1.7750999E+03   0.0000000E+00
         4        51       108   1.7813260E+03   0.0000000E+00
         4        50       109   1.7880312E+03   0.0000000E+00
         4        49       110   1.7947363E+03   0.0000000E+00
         4        48       111   1.8014415E+03   0.0000000E+00
         4        47       111   1.8050336E+03   0.0000000E+00
         4        46       111   1.8086256E+03   0.0000000E+00
         4        45       111   1.8122177E+03   0.0000000E+00
         4        44       110   1.8126965E+03   0.0000000E+00
         4        43       109   1.8131755E+03   0.0000000E+00
         4        42       109   1.8167676E+03   0.0000000E+00
         4        41       109   1.8203596E+03   0.0000000E+00
         4        40       109   1.8239517E+03   0.0000000E+00
         4        39       109   1.8275437E+03   0.0000000E+00
         4        38       109   1.8311357E+03   0.0000000E+00
         4        37       110   1.8378408E+03   0.0000000E+00
         4        37       111   1.8409540E+03   0.0000000E+00
         4        37       112   1.8440671E+03   0.0000000E+00
         4        37       113   1.8671802E+03   0.0000000E+00
         4        37       114   1.8702933E+03   0.0000000E+00
         4        36       116   1.9201116E+03   0.0000000E+00
         1        40        48   1.1900294E+03   1.3359840E+04
         2        54        87   1.6238796E+03   1.6654307E+04
         2        54        88   1.6338297E+03   1.7143562E+04
         2        53        86   1.6120869E+03   1.5072469E+04
         2        53        89   1.6419371E+03   1.3298125E+04
         2        53        90   1.6518873E+03   1.3121857E+04
         2        53        91   1.6618374E+03   1.2986621E+04
         2        53        92   1.6717875E+03   1.2805553E+04
         2        53        94   1.6916876E+03   1.2646213E+04
         2        52        82   1.5704440E+03   1.1199624E+04
         2        52        83   1.5803940E+03   1.1824275E+04
         2        52        84   1.5903441E+03   1.2482311E+04
         2        52        85   1.6002942E+03   1.3188836E+04
         2        52        93   1.6798949E+03   1.2289761E+04
         2        52        95   1.6997952E+03   1.2850851E+04
         2        52        96   1.7097452E+03   1.2409699E+04
         2        51        81   1.5586512E+03   9.7331396E+03
         2        51        97   1.7178527E+03   1.0226181E+04
         2        51        98   1.7278029E+03   1.0866909E+04
         2        51        99   1.7377529E+03   1.1078310E+04
         2        50        78   1.5269584E+03   7.6685303E+03
         2        50        79   1.5369084E+03   8.2537500E+03
         2        50        80   1.5468585E+03   8.5379600E+03
         2        50       100   1.7458604E+03   1.0078632E+04
         2        50       101   1.7558104E+03   1.0762431E+04
         2        50       102   1.7657606E+03   1.1541450E+04
         2        49        77   1.5151656E+03   7.2575098E+03
         2        48        64   1.3839718E+03   7.8197046E+03
         2        48        65   1.3939219E+03   8.4683750E+03
         2        48        76   1.5033729E+03   7.0744702E+03
         2        47        63   1.3721791E+03   8.1042422E+03
         2        47        66   1.4020294E+03   8.3560635E+03
         2        47        74   1.4816301E+03   7.3787305E+03
         2        47        75   1.4915802E+03   7.1327598E+03
         2        47        76   1.5015303E+03   6.9527891E+03
         2        46        60   1.3404862E+03   6.4721699E+03
         2        46        61   1.3504363E+03   7.4521655E+03
         2        46        62   1.3603865E+03   7.9795723E+03
         2        46        67   1.4101368E+03   9.4872090E+03
         2        46        68   1.4200869E+03   9.6063721E+03
         2        46        69   1.4300371E+03   9.0593320E+03
         2        46        70   1.4399872E+03   1.0228658E+04
         2        46        71   1.4499373E+03   9.6293066E+03
         2        46        72   1.4598873E+03   7.7843799E+03
         2        46        73   1.4698374E+03   7.5610791E+03
         2        45        58   1.3187434E+03   6.3204985E+03
         2        45        59   1.3286935E+03   7.0897188E+03
         2        44        55   1.2870505E+03   6.0523120E+03
         2        44        56   1.2970006E+03   6.7645747E+03
         2        44        57   1.3069507E+03   7.3516284E+03
         2        43        52   1.2553577E+03   6.0960625E+03
         2        43        53   1.2653077E+03   6.5655200E+03
         2        43        54   1.2752578E+03   7.0648066E+03
         2        42        51   1.2435649E+03   7.0317793E+03
         2        41        50   1.2317722E+03   8.0083833E+03
         2        40        48   1.1900294E+03   4.0000000E+03
         2        40        49   1.2199795E+03   8.8311875E+03
         3        54        87   1.6238796E+03   1.2667059E+04
         3        54        88   1.6338297E+03   1.3489352E+04
         3        53        86   1.6120869E+03   5.9734053E+03
         3        53        89   1.6419371E+03   9.5183643E+03
         3        53        90   1.6518873E+03   8.8673623E+03
         3        53        91   1.6618374E+03   8.0729004E+03
         3        53        92   1.6717875E+03   6.7337896E+03
         3        53        94   1.6916876E+03   5.4417578E+03
         3        52        82   1.5704440E+03   1.6125885E+03
         3        52        83   1.5803940E+03   1.2450104E+03
         3        52        84   1.5903441E+03   1.1653021E+03
         3        52        85   1.6002942E+03   1.5101050E+03
         3        52        93   1.6798949E+03   6.5616699E+02
         3        52        95   1.6997952E+03   6.8010437E+02
         3        52        96   1.7097452E+03   1.1584698E+03
         3        51        81   1.5586512E+03   1.8524426E+03
         3        51        97   1.7178527E+03   6.5615967E+02
         3        51        98   1.7278029E+03   6.5616089E+02
         3        51        99   1.7377529E+03   6.5617004E+02
         3        50        78   1.5269584E+03   2.1574443E+03
         3        50        79   1.5369084E+03   1.1386804E+03
         3        50        80   1.5468585E+03   1.3273596E+03
         3        50       100   1.7458604E+03   6.5616943E+02
         3        50       101   1.7558104E+03   6.5616943E+02
         3        50       102   1.7657606E+03   6.5617126E+02
         3        49        77   1.5151656E+03   2.3339673E+03
         3        48        64   1.3839718E+03   5.3501572E+03
         3        48        65   1.3939219E+03   5.7612520E+03
         3        48        76   1.5033729E+03   2.8236602E+03
         3        47        63   1.3721791E+03   5.3903979E+03
         3        47        66   1.4020294E+03   8.3303799E+03
         3        47        74   1.4816301E+03   3.1418403E+03
         3        47        75   1.4915802E+03   2.5180774E+03
         3        47        76   1.5015303E+03   1.8893555E+03
         3        46        60   1.3404862E+03   4.0146431E+03
         3        46        61   1.3504363E+03   4.7721182E+03
         3        46        62   1.3603865E+03   4.9045581E+03
         3        46        67   1.4101368E+03   6.9126035E+03
         3        46        68   1.4200869E+03   9.0736445E+03
         3        46        69   1.4300371E+03   5.5318169E+03
         3        46        70   1.4399872E+03   3.2391140E+03
         3        46        71   1.4499373E+03   2.8181221E+03
         3        46        72   1.4598873E+03   3.7098237E+03
         3        46        73   1.4698374E+03   3.0248364E+03
         3        45        58   1.3187434E+03   3.8902778E+03
         3        45        59   1.3286935E+03   4.4423892E+03
         3        44        55   1.2870505E+03   3.3395862E+03
         3        44        56   1.2970006E+03   3.9679785E+03
         3        44        57   1.3069507E+03   4.6098662E+03
         3        43        52   1.2553577E+03   3.4251582E+03
         3        43        53   1.2653077E+03   3.7883899E+03
         3        43        54   1.2752578E+03   4.1293779E+03
         3        42        51   1.2435649E+03   4.2883867E+03
         3        41        50   1.2317722E+03   4.4400850E+03
         3        40        48   1.1900294E+03   6.5500000E+03
         3        40        49   1.2199795E+03   4.8844731E+03
         4        54        87   1.6238796E+03   0.0000000E+00
         4        54        88   1.6338297E+03   0.0000000E+00
         4        53        86   1.6120869E+03   0.0000000E+00
         4        53        89   1.6419371E+03   0.0000000E+00
         4        53        90   1.6518873E+03   0.0000000E+00
         4        53        91   1.6618374E+03   0.0000000E+00
         4        53        92   1.6717875E+03   0.0000000E+00
         4        53        94   1.6916876E+03   0.0000000E+00
         4        52        82   1.5704440E+03   0.0000000E+00
         4        52        83   1.5803940E+03   0.0000000E+00
         4        52        84   1.5903441E+03   0.0000000E+00
         4        52        85   1.6002942E+03   0.0000000E+00
         4        52        93   1.6798949E+03   0.0000000E+00
         4        52        95   1.6997952E+03   0.0000000E+00
         4        52        96   1.7097452E+03   0.0000000E+00
         4        51        81   1.5586512E+03   0.0000000E+00
         4        51        97   1.7178527E+03   0.0000000E+00
         4        51        98   1.7278029E+03   0.0000000E+00
         4        51        99   1.7377529E+03   0.0000000E+00
         4        50        78   1.5269584E+03   0.0000000E+00
         4        50        79   1.5369084E+03   0.0000000E+00
         4        50        80   1.5468585E+03   0.0000000E+00
         4        50       100   1.7458604E+03   0.0000000E+00
         4        50       101   1.7558104E+03   0.0000000E+00
         4        50       102   1.7657606E+03   0.0000000E+00
         4        49        77   1.5151656E+03   0.0000000E+00
         4        48        64   1.3839718E+03   5.1368481E+03
         4        48        65   1.3939219E+03   3.6313940E+03
         4        48        76   1.5033729E+03   0.0000000E+00
         4        47        63   1.3721791E+03   4.2794409E+03
         4        47        66   1.4020294E+03   0.0000000E+00
         4        47        74   1.4816301E+03   0.0000000E+00
         4        47        75   1.4915802E+03   0.0000000E+00
         4        47        76   1.5015303E+03   0.0000000E+00
         4        46        60   1.3404862E+03   6.6561182E+03
         4        46        61   1.3504363E+03   4.8384297E+03
         4        46        62   1.3603865E+03   3.2264946E+03
         4        46        67   1.4101368E+03   0.0000000E+00
         4        46        68   1.4200869E+03   0.0000000E+00
         4        46        69   1.4300371E+03   0.0000000E+00
         4        46        70   1.4399872E+03   0.0000000E+00
         4        46        71   1.4499373E+03   0.0000000E+00
         4        46        72   1.4598873E+03   0.0000000E+00
         4        46        73   1.4698374E+03   0.0000000E+00
         4        45        58   1.3187434E+03   7.5396558E+03
         4        45        59   1.3286935E+03   5.5097559E+03
         4        44        55   1.2870505E+03   9.6279775E+03
         4        44        56   1.2970006E+03   7.7801025E+03
         4        44        57   1.3069507E+03   5.9099990E+03
         4        43        52   1.2553577E+03   1.1568818E+04
         4        43        53   1.2653077E+03   9.5868271E+03
         4        43        54   1.2752578E+03   7.6940469E+03
         4        42        51   1.2435649E+03   9.5480801E+03
         4        41        50   1.2317722E+03   8.4561338E+03
         4        40        48   1.1900294E+03   9.6500000E+03
         4        40        49   1.2199795E+03   7.6012588E+03
         1        40        47   1.1900294E+03   1.2923720E+04
         1        39        46   1.1804728E+03   1.2838641E+04
         1        38        44   1.1649603E+03   1.2673490E+04
         1        38        45   1.1709160E+03   1.2727629E+04
         1        37        43   1.1554037E+03   1.2600180E+04
         1        36        42   1.1458469E+03   1.2498750E+04
         1        35        41   1.1362903E+03   1.2412820E+04
         1        34        41   1.1326891E+03   1.2361400E+04
         1        33        40   1.1231324E+03   1.2275551E+04
         1        32        39   1.1135757E+03   1.2192280E+04
         1        31        39   1.1099746E+03   1.2143350E+04
         1        30        38   1.1004178E+03   1.2073770E+04
         1        29        37   1.0908612E+03   1.1998170E+04
         1        28        36   1.0813044E+03   9.1027324E+03
         1        27        35   1.0717478E+03   8.3514375E+03
         1        26        35   1.0681466E+03   7.8468418E+03
         1        25        34   1.0585900E+03   7.2264150E+03
         1        24        33   1.0490332E+03   6.7097363E+03
         1        23        31   1.0335209E+03   6.0218257E+03
         1        23        32   1.0394766E+03   6.3401265E+03
         1        22        30   1.0239642E+03   5.8385293E+03
         1        21        28   1.0084518E+03   5.5364648E+03
         1        21        29   1.0144074E+03   5.8019731E+03
         1        20        24   9.8102814E+02   4.9676553E+03
         1        20        25   9.8698383E+02   5.2052632E+03
         1        20        26   9.9293945E+02   5.4466597E+03
         1        20        27   9.9889508E+02   5.6758516E+03
         1        19        22   9.6551581E+02   5.2006123E+03
         1        19        23   9.7147144E+02   5.3751836E+03
         1        18        20   9.5000348E+02   5.6883779E+03
         1        18        21   9.5595911E+02   5.7843750E+03
         1        17        17   9.2853546E+02   6.2048877E+03
         1        17        18   9.3449109E+02   6.2270469E+03
         1        17        19   9.4044672E+02   6.3037964E+03
         1        16         6   8.5942236E+02   8.6245693E+03
         1        16         7   8.6537799E+02   8.5351455E+03
         1        16         8   8.7133362E+02   8.4195088E+03
         1        16         9   8.7728931E+02   8.2616191E+03
         1        16        10   8.8324493E+02   8.0656777E+03
         1        16        11   8.8920056E+02   7.8558325E+03
         1        16        12   8.9515619E+02   7.6447583E+03
         1        16        13   9.0111182E+02   7.4391460E+03
         1        16        14   9.0706744E+02   7.2469556E+03
         1        16        15   9.1302307E+02   7.1123682E+03
         1        16        16   9.1897876E+02   7.0392578E+03
         1        15         5   8.4986566E+02   9.4190576E+03
         1        14         4   8.4030896E+02   1.0052340E+04
         2        40        47   1.1900294E+03   4.0000000E+03
         2        39        46   1.1804728E+03   4.0000000E+03
         2        38        44   1.1649603E+03   4.0000000E+03
         2        38        45   1.1709160E+03   4.0000000E+03
         2        37        43   1.1554037E+03   4.0000000E+03
         2        36        42   1.1458469E+03   4.0000000E+03
         2        35        41   1.1362903E+03   4.0000000E+03
         2        34        41   1.1326891E+03   4.0000000E+03
         2        33        40   1.1231324E+03   4.0000000E+03
         2        32        39   1.1135757E+03   4.0000000E+03
         2        31        39   1.1099746E+03   4.0000000E+03
         2        30        38   1.1004178E+03   4.0000000E+03
         2        29        37   1.0908612E+03   4.0000000E+03
         2        28        36   1.0813044E+03   5.6651733E+03
         2        27        35   1.0717478E+03   6.6501699E+03
         2        26        35   1.0681466E+03   7.1012861E+03
         2        25        34   1.0585900E+03   8.0065522E+03
         2        24        33   1.0490332E+03   8.8947275E+03
         2        23        31   1.0335209E+03   1.0279403E+04
         2        23        32   1.0394766E+03   9.7069668E+03
         2        22        30   1.0239642E+03   1.0773875E+04
         2        21        28   1.0084518E+03   1.1777955E+04
         2        21        29   1.0144074E+03   1.1035926E+04
         2        20        24   9.8102814E+02   9.5513535E+03
         2        20        25   9.8698383E+02   1.0380344E+04
         2        20        26   9.9293945E+02   1.1276559E+04
         2        20        27   9.9889508E+02   1.2236254E+04
         2        19        22   9.6551581E+02   8.7324160E+03
         2        19        23   9.7147144E+02   9.4505215E+03
         2        18        20   9.5000348E+02   8.2778467E+03
         2        18        21   9.5595911E+02   8.8585049E+03
         2        17        17   9.2853546E+02   7.9672310E+03
         2        17        18   9.3449109E+02   8.3298887E+03
         2        17        19   9.4044672E+02   8.7428115E+03
         2        16         6   8.5942236E+02   1.0200782E+04
         2        16         7   8.6537799E+02   9.5220127E+03
         2        16         8   8.7133362E+02   8.9252881E+03
         2        16         9   8.7728931E+02   8.4433320E+03
         2        16        10   8.8324493E+02   8.0990181E+03
         2        16        11   8.8920056E+02   7.8960713E+03
         2        16        12   8.9515619E+02   7.8322241E+03
         2        16        13   9.0111182E+02   7.8978608E+03
         2        16        14   9.0706744E+02   8.0749844E+03
         2        16        15   9.1302307E+02   8.3219004E+03
         2        16        16   9.1897876E+02   8.6176016E+03
         2        15         5   8.4986566E+02   1.1836893E+04
         2        14         4   8.4030896E+02   1.4000000E+04
         3        40        47   1.1900294E+03   6.5500000E+03
         3        39        46   1.1804728E+03   6.5500000E+03
         3        38        44   1.1649603E+03   6.5500000E+03
         3        38        45   1.1709160E+03   6.5500000E+03
         3        37        43   1.1554037E+03   6.5500000E+03
         3        36        42   1.1458469E+03   6.5500000E+03
         3        35        41   1.1362903E+03   6.5500000E+03
         3        34        41   1.1326891E+03   6.5500000E+03
         3        33        40   1.1231324E+03   6.5500000E+03
         3        32        39   1.1135757E+03   6.5500000E+03
         3        31        39   1.1099746E+03   6.5500000E+03
         3        30        38   1.1004178E+03   6.5500000E+03
         3        29        37   1.0908612E+03   6.5500000E+03
         3        28        36   1.0813044E+03   8.2356650E+03
         3        27        35   1.0717478E+03   8.1948115E+03
         3        26        35   1.0681466E+03   8.1420420E+03
         3        25        34   1.0585900E+03   8.2283623E+03
         3        24        33   1.0490332E+03   8.3924766E+03
         3        23        31   1.0335209E+03   8.6624004E+03
         3        23        32   1.0394766E+03   8.5967773E+03
         3        22        30   1.0239642E+03   8.7879062E+03
         3        21        28   1.0084518E+03   7.6178799E+03
         3        21        29   1.0144074E+03   8.8921006E+03
         3        20        24   9.8102814E+02   7.3251021E+03
         3        20        25   9.8698383E+02   7.8323027E+03
         3        20        26   9.9293945E+02   8.3779023E+03
         3        20        27   9.9889508E+02   8.9558857E+03
         3        19        22   9.6551581E+02   7.0736406E+03
         3        19        23   9.7147144E+02   7.4967568E+03
         3        18        20   9.5000348E+02   7.1163564E+03
         3        18        21   9.5595911E+02   7.4331597E+03
         3        17        17   9.2853546E+02   7.2501514E+03
         3        17        18   9.3449109E+02   7.4250840E+03
         3        17        19   9.4044672E+02   7.6503711E+03
         3        16         6   8.5942236E+02   9.5112783E+03
         3        16         7   8.6537799E+02   9.1344814E+03
         3        16         8   8.7133362E+02   8.7848936E+03
         3        16         9   8.7728931E+02   8.4730684E+03
         3        16        10   8.8324493E+02   8.2129648E+03
         3        16        11   8.8920056E+02   8.0171758E+03
         3        16        12   8.9515619E+02   7.8885879E+03
         3        16        13   9.0111182E+02   7.8237539E+03
         3        16        14   9.0706744E+02   7.8164893E+03
         3        16        15   9.1302307E+02   7.8682324E+03
         3        16        16   9.1897876E+02   7.9703613E+03
         3        15         5   8.4986566E+02   1.0718271E+04
         3        14         4   8.4030896E+02   1.4000000E+04
         4        40        47   1.1900294E+03   9.6500000E+03
         4        39        46   1.1804728E+03   9.6500000E+03
         4        38        44   1.1649603E+03   9.6500000E+03
         4        38        45   1.1709160E+03   9.6500000E+03
         4        37        43   1.1554037E+03   9.6500000E+03
         4        36        42   1.1458469E+03   9.6500000E+03
         4        35        41   1.1362903E+03   9.6500000E+03
         4        34        41   1.1326891E+03   9.6500000E+03
         4        33        40   1.1231324E+03   9.6500000E+03
         4        32        39   1.1135757E+03   9.6500000E+03
         4        31        39   1.1099746E+03   9.6500000E+03
         4        30        38   1.1004178E+03   9.6500000E+03
         4        29        37   1.0908612E+03   9.6500000E+03
         4        28        36   1.0813044E+03   2.4042993E+03
         4        27        35   1.0717478E+03   2.2446094E+03
         4        26        35   1.0681466E+03   2.2400806E+03
         4        25        34   1.0585900E+03   2.3135303E+03
         4        24        33   1.0490332E+03   2.5397998E+03
         4        23        31   1.0335209E+03   3.2978198E+03
         4        23        32   1.0394766E+03   2.8671594E+03
         4        22        30   1.0239642E+03   3.6544897E+03
         4        21        28   1.0084518E+03   6.0899404E+03
         4        21        29   1.0144074E+03   3.9021704E+03
         4        20        24   9.8102814E+02   1.3206891E+04
         4        20        25   9.8698383E+02   1.0682001E+04
         4        20        26   9.9293945E+02   8.2204990E+03
         4        20        27   9.9889508E+02   5.7405396E+03
         4        19        22   9.6551581E+02   1.6035562E+04
         4        19        23   9.7147144E+02   1.3672359E+04
         4        18        20   9.5000348E+02   1.8270271E+04
         4        18        21   9.5595911E+02   1.5928360E+04
         4        17        17   9.2853546E+02   2.2294887E+04
         4        17        18   9.3449109E+02   2.0038891E+04
         4        17        19   9.4044672E+02   1.7894410E+04
         4        16         6   8.5942236E+02   3.1751402E+04
         4        16         7   8.6537799E+02   3.2327250E+04
         4        16         8   8.7133362E+02   3.2800281E+04
         4        16         9   8.7728931E+02   3.2743023E+04
         4        16        10   8.8324493E+02   3.2466102E+04
         4        16        11   8.8920056E+02   3.1779254E+04
         4        16        12   8.9515619E+02   3.0381240E+04
         4        16        13   9.0111182E+02   2.8663980E+04
         4        16        14   9.0706744E+02   2.6571709E+04
         4        16        15   9.1302307E+02   2.4400000E+04
         4        16        16   9.1897876E+02   2.2139680E+04
         4        15         5   8.4986566E+02   3.0385627E+04