# MNW2 package for  MODFLOW-NWT, generated by Flopy.
272 0 0
66_OWN_10_YCPABLVD -1
            skin 0 0 1 0
               1.0000000E+00    1.2500000E+01    3.1250000E+01
               1.4962029E+03    5.1120288E+02 40 126
66_OWN_12_WDCD1234 -1
            skin 0 0 1 0
               1.0000000E+00    1.2500000E+01    3.1250000E+01
               3.8068149E+03    3.6278149E+03 11 177
66_OWN_3_ADAMST125 -1
            skin 0 0 1 0
               1.0000000E+00    1.2500000E+01    3.1250000E+01
               3.7375100E+03    3.6635100E+03 25 187
66_OWN_3_OAKGLENCR -1
            skin 0 0 1 0
               1.0000000E+00    1.2500000E+01    3.1250000E+01
               4.9431309E+03    4.8691309E+03 27 209
6_OWN_3_BIRCHCREEK -1
            skin 0 0 1 0
               1.0000000E+00    1.2500000E+01    3.1250000E+01
               4.2545420E+03    4.1805420E+03 27 199
6_OWN_6_HogCanyon1 -1
            skin 0 0 1 0
               1.0000000E+00    1.2500000E+01    3.1250000E+01
               2.0578330E+03    1.7278330E+03 53 128
BEA_1_100_166 -1
            skin 0 0 1 0
               1.0000000E+00    1.2500000E+01    3.1250000E+01
               2.4416819E+03    1.8084640E+03 101 167
BEA_1_100_179 -1
            skin 0 0 1 0
               1.0000000E+00    1.2500000E+01    3.1250000E+01
               2.5678660E+03    1.6200341E+03 101 180
BEA_1_101_156 -1
            skin 0 0 1 0
               1.0000000E+00    1.2500000E+01    3.1250000E+01
               2.4049141E+03    2.0819121E+03 102 157
BEA_1_110_180 -1
            skin 0 0 1 0
               1.0000000E+00    1.2500000E+01    3.1250000E+01
               2.5657971E+03    2.0369340E+03 111 181
BEA_1_113_183 -1
            skin 0 0 1 0
               1.0000000E+00    1.2500000E+01    3.1250000E+01
               2.5763020E+03    2.2009910E+03 114 184
BEA_1_123_183 -1
            skin 0 0 1 0
               1.0000000E+00    1.2500000E+01    3.1250000E+01
               2.5485449E+03    2.4232400E+03 124 184
BEA_1_124_184 -1
            skin 0 0 1 0
               1.0000000E+00    1.2500000E+01    3.1250000E+01
               2.5429399E+03    2.4127019E+03 125 185
BEA_1_71_140 -1
            skin 0 0 1 0
               1.0000000E+00    1.2500000E+01    3.1250000E+01
               2.3599780E+03    1.4776820E+03 72 141
BEA_1_72_141 -1
            skin 0 0 1 0
               1.0000000E+00    1.2500000E+01    3.1250000E+01
               2.3387920E+03    1.6194170E+03 73 142
BEA_1_72_144 -1
            skin 0 0 1 0
               1.0000000E+00    1.2500000E+01    3.1250000E+01
               2.4132051E+03    1.6993850E+03 73 145
BEA_1_73_137 -1
            skin 0 0 1 0
               1.0000000E+00    1.2500000E+01    3.1250000E+01
               2.2835640E+03    1.4200820E+03 74 138
BEA_1_75_137 -1
            skin 0 0 1 0
               1.0000000E+00    1.2500000E+01    3.1250000E+01
               2.3174939E+03    1.6365270E+03 76 138
BEA_1_75_144 -1
            skin 0 0 1 0
               1.0000000E+00    1.2500000E+01    3.1250000E+01
               2.3514460E+03    1.7753800E+03 76 145
BEA_1_76_144 -1
            skin 0 0 1 0
               1.0000000E+00    1.2500000E+01    3.1250000E+01
               2.3258850E+03    1.7906670E+03 77 145
BEA_1_78_138 -1
            skin 0 0 1 0
               1.0000000E+00    1.2500000E+01    3.1250000E+01
               2.2856121E+03    1.6831780E+03 79 139
BEA_1_79_146 -1
            skin 0 0 1 0
               1.0000000E+00    1.2500000E+01    3.1250000E+01
               2.3167300E+03    1.8192640E+03 80 147
BEA_1_80_142 -1
            skin 0 0 1 0
               1.0000000E+00    1.2500000E+01    3.1250000E+01
               2.2536089E+03    1.7160551E+03 81 143
BEA_1_82_142 -1
            skin 0 0 1 0
               1.0000000E+00    1.2500000E+01    3.1250000E+01
               2.2411589E+03    1.7152870E+03 83 143
BEA_1_82_148 -1
            skin 0 0 1 0
               1.0000000E+00    1.2500000E+01    3.1250000E+01
               2.2986440E+03    1.8055430E+03 83 149
BEA_1_83_143 -1
            skin 0 0 1 0
               1.0000000E+00    1.2500000E+01    3.1250000E+01
               2.2455720E+03    1.7296600E+03 84 144
BEA_1_83_144 -1
            skin 0 0 1 0
               1.0000000E+00    1.2500000E+01    3.1250000E+01
               2.2660720E+03    1.7451021E+03 84 145
BEA_1_83_145 -1
            skin 0 0 1 0
               1.0000000E+00    1.2500000E+01    3.1250000E+01
               2.2717720E+03    1.7517970E+03 84 146
BEA_1_84_142 -1
            skin 0 0 1 0
               1.0000000E+00    1.2500000E+01    3.1250000E+01
               2.2220300E+03    1.7402410E+03 85 143
BEA_1_84_143 -1
            skin 0 0 1 0
               1.0000000E+00    1.2500000E+01    3.1250000E+01
               2.2330920E+03    1.7381680E+03 85 144
BEA_1_85_147 -1
            skin 0 0 1 0
               1.0000000E+00    1.2500000E+01    3.1250000E+01
               2.2711189E+03    1.7812310E+03 86 148
BEA_1_85_148 -1
            skin 0 0 1 0
               1.0000000E+00    1.2500000E+01    3.1250000E+01
               2.2751289E+03    1.7934020E+03 86 149
BEA_1_86_149 -1
            skin 0 0 1 0
               1.0000000E+00    1.2500000E+01    3.1250000E+01
               2.2874331E+03    1.8230940E+03 87 150
BEA_1_88_164 -1
            skin 0 0 1 0
               1.0000000E+00    1.2500000E+01    3.1250000E+01
               2.5376011E+03    1.9201870E+03 89 165
BEA_1_93_191 -1
            skin 0 0 1 0
               1.0000000E+00    1.2500000E+01    3.1250000E+01
               2.7305801E+03    1.5718180E+03 94 192
BEA_1_94_148 -1
            skin 0 0 1 0
               1.0000000E+00    1.2500000E+01    3.1250000E+01
               2.2965259E+03    1.8135830E+03 95 149
BEA_1_94_176 -1
            skin 0 0 1 0
               1.0000000E+00    1.2500000E+01    3.1250000E+01
               2.6053501E+03    1.7128790E+03 95 177
BEA_1_99_177 -1
            skin 0 0 1 0
               1.0000000E+00    1.2500000E+01    3.1250000E+01
               2.5630769E+03    1.6620520E+03 100 178
BEA_2_113_183 -1
            skin 0 0 1 0
               1.0000000E+00    1.2500000E+01    3.1250000E+01
               2.1999910E+03    2.0200750E+03 114 184
BEA_2_116_177 -1
            skin 0 0 1 0
               1.0000000E+00    1.2500000E+01    3.1250000E+01
               2.3393149E+03    2.2369561E+03 117 178
BEA_2_116_180 -1
            skin 0 0 1 0
               1.0000000E+00    1.2500000E+01    3.1250000E+01
               2.3212380E+03    2.2068540E+03 117 181
BEA_2_71_140 -1
            skin 0 0 1 0
               1.0000000E+00    1.2500000E+01    3.1250000E+01
               1.4766820E+03    9.5188013E+02 72 141
BEA_2_82_110 -1
            skin 0 0 1 0
               1.0000000E+00    1.2500000E+01    3.1250000E+01
               1.6282770E+03    1.3593790E+03 83 111
BEA_2_84_194 -1
            skin 0 0 1 0
               1.0000000E+00    1.2500000E+01    3.1250000E+01
               1.8296500E+03    1.4913900E+03 85 195
BEA_3_100_166 -1
            skin 0 0 1 0
               1.0000000E+00    1.2500000E+01    3.1250000E+01
               1.4949230E+03   -4.3978159E+02 101 167
BEA_3_100_179 -1
            skin 0 0 1 0
               1.0000000E+00    1.2500000E+01    3.1250000E+01
               1.3699780E+03    1.4642030E+02 101 180
BEA_3_101_156 -1
            skin 0 0 1 0
               1.0000000E+00    1.2500000E+01    3.1250000E+01
               1.9232030E+03    1.5432450E+03 102 157
BEA_3_110_180 -1
            skin 0 0 1 0
               1.0000000E+00    1.2500000E+01    3.1250000E+01
               1.8614200E+03    1.0424540E+03 111 181
BEA_3_72_144 -1
            skin 0 0 1 0
               1.0000000E+00    1.2500000E+01    3.1250000E+01
               1.3220310E+03   -1.1250450E+03 73 145
BEA_3_75_144 -1
            skin 0 0 1 0
               1.0000000E+00    1.2500000E+01    3.1250000E+01
               1.3324041E+03   -1.9911770E+03 76 145
BEA_3_76_144 -1
            skin 0 0 1 0
               1.0000000E+00    1.2500000E+01    3.1250000E+01
               1.3269670E+03   -2.2708811E+03 77 145
BEA_3_80_148 -1
            skin 0 0 1 0
               1.0000000E+00    1.2500000E+01    3.1250000E+01
               1.3591450E+03   -2.6013630E+03 81 149
BEA_3_80_149 -1
            skin 0 0 1 0
               1.0000000E+00    1.2500000E+01    3.1250000E+01
               1.4006710E+03   -2.3025249E+03 81 150
BEA_3_81_106 -1
            skin 0 0 1 0
               1.0000000E+00    1.2500000E+01    3.1250000E+01
               1.3649510E+03   -5.6389441E+02 82 107
BEA_3_82_110 -1
            skin 0 0 1 0
               1.0000000E+00    1.2500000E+01    3.1250000E+01
               1.3583790E+03   -7.5105481E+02 83 111
BEA_3_82_148 -1
            skin 0 0 1 0
               1.0000000E+00    1.2500000E+01    3.1250000E+01
               1.2894041E+03   -2.9514141E+03 83 149
BEA_3_83_144 -1
            skin 0 0 1 0
               1.0000000E+00    1.2500000E+01    3.1250000E+01
               1.1797841E+03   -3.7920000E+03 84 145
BEA_3_83_154 -1
            skin 0 0 1 0
               1.0000000E+00    1.2500000E+01    3.1250000E+01
               1.3236760E+03   -1.6731450E+03 84 155
BEA_3_84_150 -1
            skin 0 0 1 0
               1.0000000E+00    1.2500000E+01    3.1250000E+01
               1.3686370E+03   -2.3688921E+03 85 151
BEA_3_84_151 -1
            skin 0 0 1 0
               1.0000000E+00    1.2500000E+01    3.1250000E+01
               1.4004821E+03   -2.1683501E+03 85 152
BEA_3_85_147 -1
            skin 0 0 1 0
               1.0000000E+00    1.2500000E+01    3.1250000E+01
               1.2741490E+03   -2.8419290E+03 86 148
BEA_3_85_148 -1
            skin 0 0 1 0
               1.0000000E+00    1.2500000E+01    3.1250000E+01
               1.2999410E+03   -2.7027229E+03 86 149
BEA_3_85_151 -1
            skin 0 0 1 0
               1.0000000E+00    1.2500000E+01    3.1250000E+01
               1.3935380E+03   -2.1393650E+03 86 152
BEA_3_86_149 -1
            skin 0 0 1 0
               1.0000000E+00    1.2500000E+01    3.1250000E+01
               1.3588680E+03   -2.3550449E+03 87 150
BEA_3_86_153 -1
            skin 0 0 1 0
               1.0000000E+00    1.2500000E+01    3.1250000E+01
               1.3993020E+03   -1.9128101E+03 87 154
BEA_3_87_166 -1
            skin 0 0 1 0
               1.0000000E+00    1.2500000E+01    3.1250000E+01
               1.1694580E+03   -3.7544829E+03 88 167
BEA_3_88_164 -1
            skin 0 0 1 0
               1.0000000E+00    1.2500000E+01    3.1250000E+01
               1.2810120E+03   -4.6473950E+03 89 165
BEA_3_88_166 -1
            skin 0 0 1 0
               1.0000000E+00    1.2500000E+01    3.1250000E+01
               1.2050740E+03   -3.8238679E+03 89 167
BEA_3_88_168 -1
            skin 0 0 1 0
               1.0000000E+00    1.2500000E+01    3.1250000E+01
               1.2752860E+03   -2.2254951E+03 89 169
BEA_3_90_157 -1
            skin 0 0 1 0
               1.0000000E+00    1.2500000E+01    3.1250000E+01
               1.3280170E+03   -3.0404590E+03 91 158
BEA_3_91_166 -1
            skin 0 0 1 0
               1.0000000E+00    1.2500000E+01    3.1250000E+01
               1.2949370E+03   -3.6183259E+03 92 167
BEA_3_91_174 -1
            skin 0 0 1 0
               1.0000000E+00    1.2500000E+01    3.1250000E+01
               1.3625880E+03   -1.6682640E+03 92 175
BEA_3_92_155 -1
            skin 0 0 1 0
               1.0000000E+00    1.2500000E+01    3.1250000E+01
               1.2960940E+03   -2.5737290E+03 93 156
BEA_3_92_156 -1
            skin 0 0 1 0
               1.0000000E+00    1.2500000E+01    3.1250000E+01
               1.2954780E+03   -3.1096941E+03 93 157
BEA_3_92_166 -1
            skin 0 0 1 0
               1.0000000E+00    1.2500000E+01    3.1250000E+01
               1.2721550E+03   -4.6710171E+03 93 167
BEA_3_93_191 -1
            skin 0 0 1 0
               1.0000000E+00    1.2500000E+01    3.1250000E+01
               1.1759690E+03   -1.1415360E+03 94 192
BEA_3_94_156 -1
            skin 0 0 1 0
               1.0000000E+00    1.2500000E+01    3.1250000E+01
               1.2450160E+03   -2.4301370E+03 95 157
BEA_3_94_176 -1
            skin 0 0 1 0
               1.0000000E+00    1.2500000E+01    3.1250000E+01
               1.3490120E+03   -1.0613970E+03 95 177
BEA_3_94_196 -1
            skin 0 0 1 0
               1.0000000E+00    1.2500000E+01    3.1250000E+01
               1.2810540E+03   -1.8322510E+03 95 197
BEA_3_98_188 -1
            skin 0 0 1 0
               1.0000000E+00    1.2500000E+01    3.1250000E+01
               1.3230970E+03   -6.8383221E+02 99 189
BEA_3_99_177 -1
            skin 0 0 1 0
               1.0000000E+00    1.2500000E+01    3.1250000E+01
               1.3911610E+03   -1.2068360E+02 100 178
OWN_6_ChickenHill4 -1
            skin 0 0 1 0
               1.0000000E+00    1.2500000E+01    3.1250000E+01
               2.0046399E+03    1.7176399E+03 47 127
OWN_6_YucaipaBlvd3 -1
            skin 0 0 1 0
               1.0000000E+00    1.2500000E+01    3.1250000E+01
               2.1691809E+03    1.0154080E+03 41 124
Pre_66_OWN_0_2 -1
            skin 0 0 1 0
               1.0000000E+00    1.2500000E+01    3.1250000E+01
               2.4087971E+03    1.8507971E+03 66 158
Pre_66_OWN_12_2 -1
            skin 0 0 1 0
               1.0000000E+00    1.2500000E+01    3.1250000E+01
               3.6800171E+03    3.6060171E+03 19 186
Pre_66_OWN_13_1 -1
            skin 0 0 1 0
               1.0000000E+00    1.2500000E+01    3.1250000E+01
               3.3241360E+03    3.0113181E+03 23 176
Pre_66_OWN_14_1 -1
            skin 0 0 1 0
               1.0000000E+00    1.2500000E+01    3.1250000E+01
               1.6892390E+03    1.4692390E+03 43 115
Pre_66_OWN_14_2 -1
            skin 0 0 1 0
               1.0000000E+00    1.2500000E+01    3.1250000E+01
               1.3866580E+03    4.0165796E+02 45 118
Pre_66_OWN_14_3 -1
            skin 0 0 1 0
               1.0000000E+00    1.2500000E+01    3.1250000E+01
               1.6892390E+03    1.4692390E+03 43 115
Pre_66_OWN_14_4 -1
            skin 0 0 1 0
               1.0000000E+00    1.2500000E+01    3.1250000E+01
               2.0692390E+03    1.5542390E+03 43 115
Pre_66_OWN_14_5 -1
            skin 0 0 1 0
               1.0000000E+00    1.2500000E+01    3.1250000E+01
               1.6892390E+03    1.4692390E+03 43 115
Pre_66_OWN_14_6 -1
            skin 0 0 1 0
               1.0000000E+00    1.2500000E+01    3.1250000E+01
               2.2021399E+03    1.0717720E+03 47 127
Pre_66_OWN_14_9 -1
            skin 0 0 1 0
               1.0000000E+00    1.2500000E+01    3.1250000E+01
               1.3966680E+03    4.1166797E+02 48 122
Pre_66_OWN_15_1 -1
            skin 0 0 1 0
               1.0000000E+00    1.2500000E+01    3.1250000E+01
               1.4962029E+03    5.1120288E+02 40 126
Pre_66_OWN_16_2 -1
            skin 0 0 1 0
               1.0000000E+00    1.2500000E+01    3.1250000E+01
               2.5456599E+03    1.5610270E+03 33 144
Pre_66_OWN_17_1 -1
            skin 0 0 1 0
               1.0000000E+00    1.2500000E+01    3.1250000E+01
               1.5944310E+03    1.2544310E+03 58 109
Pre_66_OWN_17_3 -1
            skin 0 0 1 0
               1.0000000E+00    1.2500000E+01    3.1250000E+01
               1.5944310E+03    1.2544310E+03 58 109
Pre_66_OWN_18_3 -1
            skin 0 0 1 0
               1.0000000E+00    1.2500000E+01    3.1250000E+01
               2.1499370E+03    1.9599370E+03 46 138
Pre_66_OWN_18_8 -1
            skin 0 0 1 0
               1.0000000E+00    1.2500000E+01    3.1250000E+01
               2.6372930E+03    2.3054009E+03 25 146
Pre_66_OWN_18_COBB -1
            skin 0 0 1 0
               1.0000000E+00    1.2500000E+01    3.1250000E+01
               2.1499370E+03    1.9599370E+03 46 138
Pre_66_OWN_19_1 -1
            skin 0 0 1 0
               1.0000000E+00    1.2500000E+01    3.1250000E+01
               4.4197910E+03    4.3457910E+03 27 202
Pre_66_OWN_1_1 -1
            skin 0 0 1 0
               1.0000000E+00    1.2500000E+01    3.1250000E+01
               2.1146689E+03    1.5566689E+03 63 133
Pre_66_OWN_1_11 -1
            skin 0 0 1 0
               1.0000000E+00    1.2500000E+01    3.1250000E+01
               2.1808750E+03    2.0228750E+03 62 137
Pre_66_OWN_1_14 -1
            skin 0 0 1 0
               1.0000000E+00    1.2500000E+01    3.1250000E+01
               2.0636799E+03    1.4396799E+03 69 141
Pre_66_OWN_1_15 -1
            skin 0 0 1 0
               1.0000000E+00    1.2500000E+01    3.1250000E+01
               2.1379409E+03    1.4029409E+03 66 137
Pre_66_OWN_1_16 -1
            skin 0 0 1 0
               1.0000000E+00    1.2500000E+01    3.1250000E+01
               2.1146221E+03    1.3796221E+03 64 135
Pre_66_OWN_1_5 -1
            skin 0 0 1 0
               1.0000000E+00    1.2500000E+01    3.1250000E+01
               2.0636799E+03    1.4396799E+03 69 141
Pre_66_OWN_1_6 -1
            skin 0 0 1 0
               1.0000000E+00    1.2500000E+01    3.1250000E+01
               2.2180549E+03    1.6600549E+03 57 144
Pre_66_OWN_1_7 -1
            skin 0 0 1 0
               1.0000000E+00    1.2500000E+01    3.1250000E+01
               2.1146689E+03    1.5566689E+03 63 133
Pre_66_OWN_1_9 -1
            skin 0 0 1 0
               1.0000000E+00    1.2500000E+01    3.1250000E+01
               2.0840891E+03    1.5260891E+03 65 130
Pre_66_OWN_20_NO2 -1
            skin 0 0 1 0
               1.0000000E+00    1.2500000E+01    3.1250000E+01
               4.2545420E+03    4.1805420E+03 27 199
Pre_66_OWN_20_NO3 -1
            skin 0 0 1 0
               1.0000000E+00    1.2500000E+01    3.1250000E+01
               4.4197910E+03    4.3457910E+03 27 202
Pre_66_OWN_2_1 -1
            skin 0 0 1 0
               1.0000000E+00    1.2500000E+01    3.1250000E+01
               2.0636799E+03    1.4396799E+03 69 141
Pre_66_OWN_2_2 -1
            skin 0 0 1 0
               1.0000000E+00    1.2500000E+01    3.1250000E+01
               2.0636799E+03    1.4396799E+03 69 141
Pre_66_OWN_2_3 -1
            skin 0 0 1 0
               1.0000000E+00    1.2500000E+01    3.1250000E+01
               2.0636799E+03    1.4396799E+03 69 141
Pre_66_OWN_3_1 -1
            skin 0 0 1 0
               1.0000000E+00    1.2500000E+01    3.1250000E+01
               2.5708311E+03    2.3648311E+03 20 153
Pre_66_OWN_3_10 -1
            skin 0 0 1 0
               1.0000000E+00    1.2500000E+01    3.1250000E+01
               2.1540320E+03    1.8240320E+03 54 133
Pre_66_OWN_3_11 -1
            skin 0 0 1 0
               1.0000000E+00    1.2500000E+01    3.1250000E+01
               2.1226001E+03    1.9326001E+03 47 136
Pre_66_OWN_3_12 -1
            skin 0 0 1 0
               1.0000000E+00    1.2500000E+01    3.1250000E+01
               2.0751189E+03    1.8101189E+03 52 139
Pre_66_OWN_3_18 -1
            skin 0 0 1 0
               1.0000000E+00    1.2500000E+01    3.1250000E+01
               2.5965310E+03    1.4774940E+03 34 148
Pre_66_OWN_3_2 -1
            skin 0 0 1 0
               1.0000000E+00    1.2500000E+01    3.1250000E+01
               2.0576250E+03    1.7946250E+03 54 140
Pre_66_OWN_3_21 -1
            skin 0 0 1 0
               1.0000000E+00    1.2500000E+01    3.1250000E+01
               2.6229819E+03    2.4169819E+03 23 155
Pre_66_OWN_3_22 -1
            skin 0 0 1 0
               1.0000000E+00    1.2500000E+01    3.1250000E+01
               2.7246431E+03    2.5186431E+03 23 160
Pre_66_OWN_3_3 -1
            skin 0 0 1 0
               1.0000000E+00    1.2500000E+01    3.1250000E+01
               2.5347310E+03    1.6327250E+03 32 143
Pre_66_OWN_3_4 -1
            skin 0 0 1 0
               1.0000000E+00    1.2500000E+01    3.1250000E+01
               2.2281609E+03    1.7371609E+03 50 133
Pre_66_OWN_3_5 -1
            skin 0 0 1 0
               1.0000000E+00    1.2500000E+01    3.1250000E+01
               2.5597581E+03    1.7864330E+03 38 145
Pre_66_OWN_3_6 -1
            skin 0 0 1 0
               1.0000000E+00    1.2500000E+01    3.1250000E+01
               2.5583889E+03    1.9934850E+03 46 148
Pre_66_OWN_3_7 -1
            skin 0 0 1 0
               1.0000000E+00    1.2500000E+01    3.1250000E+01
               2.7149839E+03    2.1400200E+03 38 153
Pre_66_OWN_3_8 -1
            skin 0 0 1 0
               1.0000000E+00    1.2500000E+01    3.1250000E+01
               1.8859861E+03    1.1859861E+03 43 133
Pre_66_OWN_3_9 -1
            skin 0 0 1 0
               1.0000000E+00    1.2500000E+01    3.1250000E+01
               2.6245500E+03    2.2540779E+03 26 146
Pre_66_OWN_7_1 -1
            skin 0 0 1 0
               1.0000000E+00    1.2500000E+01    3.1250000E+01
               2.1112981E+03    1.7812981E+03 58 128
Pre_66_OWN_8_NO1 -1
            skin 0 0 1 0
               1.0000000E+00    1.2500000E+01    3.1250000E+01
               1.5944310E+03    1.2544310E+03 58 109
Pre_66_OWN_8_NO2 -1
            skin 0 0 1 0
               1.0000000E+00    1.2500000E+01    3.1250000E+01
               1.4089089E+03    4.2390894E+02 54 121
Pre_66_OWN_9_KAHN -1
            skin 0 0 1 0
               1.0000000E+00    1.2500000E+01    3.1250000E+01
               3.0622720E+03    2.7577771E+03 13 160
RCH_29.0_149.0 -1
            skin 0 0 1 0
               1.0000000E+00    1.2500000E+01    3.1250000E+01
               2.6815239E+03    1.7454990E+03 30 150
RCH_29.0_150.0 -1
            skin 0 0 1 0
               1.0000000E+00    1.2500000E+01    3.1250000E+01
               2.6978550E+03    1.7123230E+03 30 151
RCH_30.0_147.0 -1
            skin 0 0 1 0
               1.0000000E+00    1.2500000E+01    3.1250000E+01
               2.6321870E+03    1.7548110E+03 31 148
RCH_30.0_148.0 -1
            skin 0 0 1 0
               1.0000000E+00    1.2500000E+01    3.1250000E+01
               2.6508120E+03    1.6535560E+03 31 149
RCH_30.0_149.0 -1
            skin 0 0 1 0
               1.0000000E+00    1.2500000E+01    3.1250000E+01
               2.6669880E+03    1.6066680E+03 31 150
RCH_30.0_150.0 -1
            skin 0 0 1 0
               1.0000000E+00    1.2500000E+01    3.1250000E+01
               2.6840220E+03    1.6059170E+03 31 151
RCH_31.0_147.0 -1
            skin 0 0 1 0
               1.0000000E+00    1.2500000E+01    3.1250000E+01
               2.6164009E+03    1.8701980E+03 32 148
RCH_31.0_148.0 -1
            skin 0 0 1 0
               1.0000000E+00    1.2500000E+01    3.1250000E+01
               2.6348789E+03    1.5473000E+03 32 149
RCH_31.0_149.0 -1
            skin 0 0 1 0
               1.0000000E+00    1.2500000E+01    3.1250000E+01
               2.6489829E+03    1.5278960E+03 32 150
RCH_31.0_150.0 -1
            skin 0 0 1 0
               1.0000000E+00    1.2500000E+01    3.1250000E+01
               2.6726201E+03    1.5457230E+03 32 151
RCH_32.0_147.0 -1
            skin 0 0 1 0
               1.0000000E+00    1.2500000E+01    3.1250000E+01
               2.5989609E+03    1.6239449E+03 33 148
RCH_32.0_148.0 -1
            skin 0 0 1 0
               1.0000000E+00    1.2500000E+01    3.1250000E+01
               2.6160039E+03    1.4620250E+03 33 149
RCH_32.0_149.0 -1
            skin 0 0 1 0
               1.0000000E+00    1.2500000E+01    3.1250000E+01
               2.6383459E+03    1.4661250E+03 33 150
RCH_32.0_150.0 -1
            skin 0 0 1 0
               1.0000000E+00    1.2500000E+01    3.1250000E+01
               2.6617910E+03    1.5378690E+03 33 151
RCH_33.0_147.0 -1
            skin 0 0 1 0
               1.0000000E+00    1.2500000E+01    3.1250000E+01
               2.5965310E+03    1.5595150E+03 34 148
RCH_33.0_148.0 -1
            skin 0 0 1 0
               1.0000000E+00    1.2500000E+01    3.1250000E+01
               2.6253911E+03    1.4053600E+03 34 149
RCH_33.0_149.0 -1
            skin 0 0 1 0
               1.0000000E+00    1.2500000E+01    3.1250000E+01
               2.6493721E+03    1.4303210E+03 34 150
RCH_33.0_150.0 -1
            skin 0 0 1 0
               1.0000000E+00    1.2500000E+01    3.1250000E+01
               2.6815491E+03    1.5557260E+03 34 151
SMWC_Well_01 -1
            skin 0 0 1 0
               1.0000000E+00    1.2500000E+01    3.1250000E+01
               2.0636799E+03    1.4396799E+03 69 141
SMWC_Well_02 -1
            skin 0 0 1 0
               1.0000000E+00    1.2500000E+01    3.1250000E+01
               2.2382649E+03    1.6802649E+03 67 146
SMWC_Well_03 -1
            skin 0 0 1 0
               1.0000000E+00    1.2500000E+01    3.1250000E+01
               2.0636799E+03    1.4396799E+03 69 141
SMWC_Well_04 -1
            skin 0 0 1 0
               1.0000000E+00    1.2500000E+01    3.1250000E+01
               2.0636799E+03    1.4396799E+03 69 141
SMWC_Well_05 -1
            skin 0 0 1 0
               1.0000000E+00    1.2500000E+01    3.1250000E+01
               1.9683899E+03    1.3443899E+03 68 133
SMWC_Well_06 -1
            skin 0 0 1 0
               1.0000000E+00    1.2500000E+01    3.1250000E+01
               2.2180549E+03    1.6600549E+03 57 144
SMWC_Well_07 -1
            skin 0 0 1 0
               1.0000000E+00    1.2500000E+01    3.1250000E+01
               2.0760891E+03    1.3410891E+03 65 130
SMWC_Well_09 -1
            skin 0 0 1 0
               1.0000000E+00    1.2500000E+01    3.1250000E+01
               2.1146689E+03    1.5566689E+03 63 133
SMWC_Well_11 -1
            skin 0 0 1 0
               1.0000000E+00    1.2500000E+01    3.1250000E+01
               2.1808750E+03    2.0228750E+03 62 137
SMWC_Well_12 -1
            skin 0 0 1 0
               1.0000000E+00    1.2500000E+01    3.1250000E+01
               2.1217419E+03    1.5637419E+03 59 136
SMWC_Well_14 -1
            skin 0 0 1 0
               1.0000000E+00    1.2500000E+01    3.1250000E+01
               2.1728491E+03    1.6148491E+03 64 140
SMWC_Well_15 -1
            skin 0 0 1 0
               1.0000000E+00    1.2500000E+01    3.1250000E+01
               2.1379409E+03    1.4029409E+03 66 137
SMWC_Well_16 -1
            skin 0 0 1 0
               1.0000000E+00    1.2500000E+01    3.1250000E+01
               2.1146221E+03    1.3796221E+03 64 135
SMWC_Well_17 -1
            skin 0 0 1 0
               1.0000000E+00    1.2500000E+01    3.1250000E+01
               2.0725559E+03    1.5145559E+03 56 135
WHWC_Well_1 -1
            skin 0 0 1 0
               1.0000000E+00    1.2500000E+01    3.1250000E+01
               1.6892390E+03    1.4692390E+03 43 115
WHWC_Well_11 -1
            skin 0 0 1 0
               1.0000000E+00    1.2500000E+01    3.1250000E+01
               1.3866580E+03    4.0165796E+02 45 118
WHWC_Well_12 -1
            skin 0 0 1 0
               1.0000000E+00    1.2500000E+01    3.1250000E+01
               1.3975161E+03    4.1251611E+02 46 121
WHWC_Well_14 -1
            skin 0 0 1 0
               1.0000000E+00    1.2500000E+01    3.1250000E+01
               2.0501040E+03    1.5351040E+03 47 116
WHWC_Well_2A -1
            skin 0 0 1 0
               1.0000000E+00    1.2500000E+01    3.1250000E+01
               1.6982051E+03    1.4782051E+03 44 118
WHWC_Well_3 -1
            skin 0 0 1 0
               1.0000000E+00    1.2500000E+01    3.1250000E+01
               1.3866580E+03    4.0165796E+02 45 118
WHWC_Well_4 -1
            skin 0 0 1 0
               1.0000000E+00    1.2500000E+01    3.1250000E+01
               2.0555530E+03    1.5405530E+03 46 116
WHWC_Well_5A -1
            skin 0 0 1 0
               1.0000000E+00    1.2500000E+01    3.1250000E+01
               1.3975161E+03    4.1251611E+02 46 121
WHWC_Well_6 -1
            skin 0 0 1 0
               1.0000000E+00    1.2500000E+01    3.1250000E+01
               1.4673149E+03    4.8231494E+02 43 125
WHWC_Well_7 -1
            skin 0 0 1 0
               1.0000000E+00    1.2500000E+01    3.1250000E+01
               1.8758149E+03    1.5358149E+03 52 106
WHWC_Well_9 -1
            skin 0 0 1 0
               1.0000000E+00    1.2500000E+01    3.1250000E+01
               1.3966680E+03    4.1166797E+02 48 122
YUC_01S01W-19G02S -1
            skin 0 0 1 0
               1.0000000E+00    1.2500000E+01    3.1250000E+01
               3.0622720E+03    2.7577771E+03 13 160
YUC_01S01W-20F -1
            skin 0 0 1 0
               1.0000000E+00    1.2500000E+01    3.1250000E+01
               2.9435630E+03    2.7645630E+03 14 165
YUC_01S01W-21M -1
            skin 0 0 1 0
               1.0000000E+00    1.2500000E+01    3.1250000E+01
               3.8068149E+03    3.6278149E+03 11 177
YUC_01S01W-21P -1
            skin 0 0 1 0
               1.0000000E+00    1.2500000E+01    3.1250000E+01
               3.8068149E+03    3.6278149E+03 11 177
YUC_01S01W-21R -1
            skin 0 0 1 0
               1.0000000E+00    1.2500000E+01    3.1250000E+01
               3.8068149E+03    3.6278149E+03 11 177
YUC_01S01W-22A -1
            skin 0 0 1 0
               1.0000000E+00    1.2500000E+01    3.1250000E+01
               4.0277959E+03    3.9537959E+03 18 191
YUC_01S01W-25 -1
            skin 0 0 1 0
               1.0000000E+00    1.2500000E+01    3.1250000E+01
               4.9431309E+03    4.8691309E+03 27 209
YUC_01S01W-26 -1
            skin 0 0 1 0
               1.0000000E+00    1.2500000E+01    3.1250000E+01
               4.2545420E+03    4.1805420E+03 27 199
YUC_01S01W-26N -1
            skin 0 0 1 0
               1.0000000E+00    1.2500000E+01    3.1250000E+01
               4.2545420E+03    4.1805420E+03 27 199
YUC_01S01W-26P -1
            skin 0 0 1 0
               1.0000000E+00    1.2500000E+01    3.1250000E+01
               4.4197910E+03    4.3457910E+03 27 202
YUC_01S01W-27J -1
            skin 0 0 1 0
               1.0000000E+00    1.2500000E+01    3.1250000E+01
               3.8120940E+03    3.7380940E+03 26 189
YUC_01S01W-27Q -1
            skin 0 0 1 0
               1.0000000E+00    1.2500000E+01    3.1250000E+01