# GHB package for  MODFLOW-NWT, generated by Flopy.
       606         1
       606         0 # stress period 1
         1        17       149   2.4106008E+03   1.8720190E+02
         1        16       149   2.4178169E+03   1.8720140E+02
         1        15       153   2.5000813E+03   2.0333881E+02
         1        15       154   2.5188433E+03   1.9980556E+02
         1        14       155   2.5448215E+03   2.0748073E+02
         1        14       156   2.5635837E+03   2.0176637E+02
         1        14       157   2.5823457E+03   2.0087010E+02
         1        13       158   2.6083240E+03   2.0308427E+02
         1        13       159   2.6270859E+03   2.0426675E+02
         1        13       160   2.6458481E+03   2.0147717E+02
         1        12       161   2.6718262E+03   2.0709247E+02
         1        12       162   2.6905884E+03   2.1327948E+02
         2        17       149   2.4106008E+03   0.0000000E+00
         2        16       149   2.4178169E+03   0.0000000E+00
         2        16       150   2.4565789E+03   4.4778904E+01
         2        16       151   2.4753411E+03   4.5216419E+01
         2        16       152   2.4941030E+03   4.5765816E+01
         2        15       153   2.5000813E+03   0.0000000E+00
         2        15       154   2.5188433E+03   0.0000000E+00
         2        14       155   2.5448215E+03   0.0000000E+00
         2        14       156   2.5635837E+03   0.0000000E+00
         2        14       157   2.5823457E+03   0.0000000E+00
         2        13       158   2.6083240E+03   0.0000000E+00
         2        13       159   2.6270859E+03   0.0000000E+00
         2        13       160   2.6458481E+03   0.0000000E+00
         2        12       161   2.6718262E+03   0.0000000E+00
         2        12       162   2.6905884E+03   0.0000000E+00
         3        17       149   2.4106008E+03   0.0000000E+00
         3        16       149   2.4178169E+03   0.0000000E+00
         3        16       150   2.4565789E+03   4.4779205E+01
         3        16       151   2.4753411E+03   4.5216816E+01
         3        16       152   2.4941030E+03   4.5765316E+01
         3        15       153   2.5000813E+03   0.0000000E+00
         3        15       154   2.5188433E+03   0.0000000E+00
         3        14       155   2.5448215E+03   0.0000000E+00
         3        14       156   2.5635837E+03   0.0000000E+00
         3        14       157   2.5823457E+03   0.0000000E+00
         3        13       158   2.6083240E+03   0.0000000E+00
         3        13       159   2.6270859E+03   0.0000000E+00
         3        13       160   2.6458481E+03   0.0000000E+00
         3        12       161   2.6718262E+03   0.0000000E+00
         3        12       162   2.6905884E+03   0.0000000E+00
         4        17       149   2.4106008E+03   0.0000000E+00
         4        16       149   2.4178169E+03   0.0000000E+00
         4        16       150   2.4565789E+03   0.0000000E+00
         4        16       151   2.4753411E+03   0.0000000E+00
         4        16       152   2.4941030E+03   0.0000000E+00
         4        15       153   2.5000813E+03   0.0000000E+00
         4        15       154   2.5188433E+03   0.0000000E+00
         4        14       155   2.5448215E+03   0.0000000E+00
         4        14       156   2.5635837E+03   0.0000000E+00
         4        14       157   2.5823457E+03   0.0000000E+00
         4        13       158   2.6083240E+03   0.0000000E+00
         4        13       159   2.6270859E+03   0.0000000E+00
         4        13       160   2.6458481E+03   0.0000000E+00
         4        12       161   2.6718262E+03   0.0000000E+00
         4        12       162   2.6905884E+03   0.0000000E+00
         1        54        87   1.6072137E+03   7.6612802E-03
         1        54        88   1.6172273E+03   7.6612718E-03
         1        53        86   1.5953457E+03   7.6612718E-03
         1        53        89   1.6253865E+03   7.6612802E-03
         1        53        90   1.6354001E+03   7.6612718E-03
         1        53        91   1.6454137E+03   7.6612793E-03
         1        53        92   1.6554272E+03   7.6612718E-03
         1        53        94   1.6754545E+03   7.6612718E-03
         1        52        82   1.5534370E+03   5.5466252E-03
         1        52        83   1.5634507E+03   7.6612802E-03
         1        52        84   1.5734642E+03   7.6612718E-03
         1        52        85   1.5834778E+03   7.6612802E-03
         1        52        93   1.6635864E+03   7.6612802E-03
         1        52        95   1.6836136E+03   7.6612802E-03
         1        52        96   1.6936272E+03   7.6612718E-03
         1        51        81   1.5415691E+03   5.0156005E-03
         1        51        97   1.7017865E+03   5.3518121E-03
         1        51        98   1.7118000E+03   5.3518121E-03
         1        51        99   1.7218136E+03   5.3518121E-03
         1        50        78   1.5096740E+03   4.2538382E-03
         1        50        79   1.5396876E+03   4.0661520E-03
         1        50        80   1.5497012E+03   4.2708693E-03
         1        50       100   1.7299728E+03   5.3518135E-03
         1        50       101   1.7399865E+03   5.3518121E-03
         1        50       102   1.7500000E+03   5.3518121E-03
         1        49        77   1.4978060E+03   4.1523189E-03
         1        48        64   1.3657750E+03   7.6612746E-03
         1        48        65   1.3757887E+03   7.6612756E-03
         1        48        76   1.4859381E+03   4.2850692E-03
         1        47        63   1.3539071E+03   7.6612746E-03
         1        47        66   1.3839479E+03   7.6612756E-03
         1        47        74   1.4640565E+03   4.5545432E-03
         1        47        75   1.4740701E+03   4.1780174E-03
         1        47        76   1.4840837E+03   3.8279165E-03
         1        46        60   1.3220120E+03   4.5399270E-03
         1        46        61   1.3320256E+03   5.2921050E-03
         1        46        62   1.3420392E+03   7.6612760E-03
         1        46        67   1.3921071E+03   7.6612760E-03
         1        46        68   1.4021206E+03   7.6612756E-03
         1        46        69   1.4121343E+03   7.6612756E-03
         1        46        70   1.4221478E+03   7.6612760E-03
         1        46        71   1.4321614E+03   5.3887055E-03
         1        46        72   1.4421750E+03   4.9760398E-03
         1        46        73   1.4521886E+03   4.5828288E-03
         1        45        58   1.3001305E+03   4.4204248E-03
         1        45        59   1.3101440E+03   4.9924473E-03
         1        44        55   1.2682354E+03   4.0659173E-03
         1        44        56   1.2782489E+03   4.6463134E-03
         1        44        57   1.2882625E+03   5.1783421E-03
         1        43        52   1.2363402E+03   3.4088003E-03
         1        43        53   1.2463538E+03   4.4823932E-03
         1        43        54   1.2563674E+03   4.8461570E-03
         1        42        51   1.2244723E+03   3.4088013E-03
         1        41        50   1.2126044E+03   3.4088013E-03
         1        40        48   1.1907228E+03   1.4976216E-02
         1        40        49   1.2007363E+03   3.4088008E-03
         2        54        87   1.6072137E+03   1.7504134E-03
         2        54        88   1.6172273E+03   1.7504240E-03
         2        53        86   1.5953457E+03   1.7504240E-03
         2        53        89   1.6253865E+03   1.7504155E-03
         2        53        90   1.6354001E+03   1.7504240E-03
         2        53        91   1.6454137E+03   1.7504155E-03
         2        53        92   1.6554272E+03   1.7504240E-03
         2        53        94   1.6754545E+03   1.7504240E-03
         2        52        82   1.5534370E+03   2.7733215E-03
         2        52        83   1.5634507E+03   1.7504151E-03
         2        52        84   1.5734642E+03   1.7504245E-03
         2        52        85   1.5834778E+03   1.7504134E-03
         2        52        93   1.6635864E+03   1.7504155E-03
         2        52        95   1.6836136E+03   1.7504155E-03
         2        52        96   1.6936272E+03   1.7504240E-03
         2        51        81   1.5415691E+03   2.5078035E-03
         2        51        97   1.7017865E+03   1.7316699E-03
         2        51        98   1.7118000E+03   1.7316699E-03
         2        51        99   1.7218136E+03   1.7316699E-03
         2        50        78   1.5096740E+03   2.1269154E-03
         2        50        79   1.5396876E+03   2.0330665E-03
         2        50        80   1.5497012E+03   2.1354351E-03
         2        50       100   1.7299728E+03   1.7316699E-03
         2        50       101   1.7399865E+03   1.7316699E-03
         2        50       102   1.7500000E+03   1.7316699E-03
         2        49        77   1.4978060E+03   2.0761595E-03
         2        48        64   1.3657750E+03   1.7504188E-03
         2        48        65   1.3757887E+03   1.7504188E-03
         2        48        76   1.4859381E+03   2.1425441E-03
         2        47        63   1.3539071E+03   1.7504198E-03
         2        47        66   1.3839479E+03   1.7504188E-03
         2        47        74   1.4640565E+03   2.2772665E-03
         2        47        75   1.4740701E+03   2.0890087E-03
         2        47        76   1.4840837E+03   1.9139635E-03
         2        46        60   1.3220120E+03   2.2699598E-03
         2        46        61   1.3320256E+03   2.6460537E-03
         2        46        62   1.3420392E+03   1.7504185E-03
         2        46        67   1.3921071E+03   1.7504188E-03
         2        46        68   1.4021206E+03   1.7504188E-03
         2        46        69   1.4121343E+03   1.7504188E-03
         2        46        70   1.4221478E+03   1.7504188E-03
         2        46        71   1.4321614E+03   2.6943590E-03
         2        46        72   1.4421750E+03   2.4880224E-03
         2        46        73   1.4521886E+03   2.2914156E-03
         2        45        58   1.3001305E+03   2.2102101E-03
         2        45        59   1.3101440E+03   2.4962279E-03
         2        44        55   1.2682354E+03   2.0329570E-03
         2        44        56   1.2782489E+03   2.3231509E-03
         2        44        57   1.2882625E+03   2.5891678E-03
         2        43        52   1.2363402E+03   1.7214420E-03
         2        43        53   1.2463538E+03   2.2411903E-03
         2        43        54   1.2563674E+03   2.4230802E-03
         2        42        51   1.2244723E+03   1.7214415E-03
         2        41        50   1.2126044E+03   1.7214405E-03
         2        40        48   1.1907228E+03   1.7214436E-03
         2        40        49   1.2007363E+03   1.7214415E-03
         3        54        87   1.6072137E+03   7.6323012E-03
         3        54        88   1.6172273E+03   7.6322998E-03
         3        53        86   1.5953457E+03   7.6322998E-03
         3        53        89   1.6253865E+03   7.6322993E-03
         3        53        90   1.6354001E+03   7.6322998E-03
         3        53        91   1.6454137E+03   7.6323003E-03
         3        53        92   1.6554272E+03   7.5061503E-03
         3        53        94   1.6754545E+03   6.2495009E-03
         3        52        82   1.5534370E+03   2.7733136E-03
         3        52        83   1.5634507E+03   1.9041488E-03
         3        52        84   1.5734642E+03   2.4048840E-03
         3        52        85   1.5834778E+03   3.3151628E-03
         3        52        93   1.6635864E+03   1.7973410E-03
         3        52        95   1.6836136E+03   2.3038783E-03
         3        52        96   1.6936272E+03   2.3360997E-03
         3        51        81   1.5415691E+03   2.5077981E-03
         3        51        97   1.7017865E+03   2.3388283E-03
         3        51        98   1.7118000E+03   2.8935946E-03
         3        51        99   1.7218136E+03   3.0766402E-03
         3        50        78   1.5096740E+03   2.1269191E-03
         3        50        79   1.5396876E+03   2.0330760E-03
         3        50        80   1.5497012E+03   2.1354342E-03
         3        50       100   1.7299728E+03   2.2110827E-03
         3        50       101   1.7399865E+03   2.8031406E-03
         3        50       102   1.7500000E+03   3.4776449E-03
         3        49        77   1.4978060E+03   2.0761574E-03
         3        48        64   1.3657750E+03   1.9912336E-03
         3        48        65   1.3757887E+03   2.9088138E-03
         3        48        76   1.4859381E+03   2.1425341E-03
         3        47        63   1.3539071E+03   2.2724366E-03
         3        47        66   1.3839479E+03   5.0360118E-03
         3        47        74   1.4640565E+03   2.2772681E-03
         3        47        75   1.4740701E+03   2.0890066E-03
         3        47        76   1.4840837E+03   1.9139582E-03
         3        46        60   1.3220120E+03   2.2699621E-03
         3        46        61   1.3320256E+03   2.6460532E-03
         3        46        62   1.3420392E+03   1.7438360E-03
         3        46        67   1.3921071E+03   4.7878362E-03
         3        46        68   1.4021206E+03   6.7621171E-03
         3        46        69   1.4121343E+03   3.2218324E-03
         3        46        70   1.4221478E+03   2.2491731E-03
         3        46        71   1.4321614E+03   2.6943544E-03
         3        46        72   1.4421750E+03   2.4880208E-03
         3        46        73   1.4521886E+03   2.2914114E-03
         3        45        58   1.3001305E+03   2.2102124E-03
         3        45        59   1.3101440E+03   2.4962267E-03
         3        44        55   1.2682354E+03   2.0329591E-03
         3        44        56   1.2782489E+03   2.3231555E-03
         3        44        57   1.2882625E+03   2.5891701E-03
         3        43        52   1.2363402E+03   3.1135634E-03
         3        43        53   1.2463538E+03   2.2411935E-03
         3        43        54   1.2563674E+03   2.4230790E-03
         3        42        51   1.2244723E+03   4.6711527E-03
         3        41        50   1.2126044E+03   6.2560337E-03
         3        40        48   1.1907228E+03   3.4633398E-04
         3        40        49   1.2007363E+03   8.1500486E-03
         4        54        87   1.6072137E+03   0.0000000E+00
         4        54        88   1.6172273E+03   0.0000000E+00
         4        53        86   1.5953457E+03   0.0000000E+00
         4        53        89   1.6253865E+03   0.0000000E+00
         4        53        90   1.6354001E+03   0.0000000E+00
         4        53        91   1.6454137E+03   0.0000000E+00
         4        53        92   1.6554272E+03   0.0000000E+00
         4        53        94   1.6754545E+03   0.0000000E+00
         4        52        82   1.5534370E+03   0.0000000E+00
         4        52        83   1.5634507E+03   0.0000000E+00
         4        52        84   1.5734642E+03   0.0000000E+00
         4        52        85   1.5834778E+03   0.0000000E+00
         4        52        93   1.6635864E+03   0.0000000E+00
         4        52        95   1.6836136E+03   0.0000000E+00
         4        52        96   1.6936272E+03   0.0000000E+00
         4        51        81   1.5415691E+03   0.0000000E+00
         4        51        97   1.7017865E+03   0.0000000E+00
         4        51        98   1.7118000E+03   0.0000000E+00
         4        51        99   1.7218136E+03   0.0000000E+00
         4        50        78   1.5096740E+03   0.0000000E+00
         4        50        79   1.5396876E+03   0.0000000E+00
         4        50        80   1.5497012E+03   0.0000000E+00
         4        50       100   1.7299728E+03   0.0000000E+00
         4        50       101   1.7399865E+03   0.0000000E+00
         4        50       102   1.7500000E+03   0.0000000E+00
         4        49        77   1.4978060E+03   0.0000000E+00
         4        48        64   1.3657750E+03   4.4476627E-03
         4        48        65   1.3757887E+03   3.1441879E-03
         4        48        76   1.4859381E+03   0.0000000E+00
         4        47        63   1.3539071E+03   3.7052894E-03
         4        47        66   1.3839479E+03   0.0000000E+00
         4        47        74   1.4640565E+03   0.0000000E+00
         4        47        75   1.4740701E+03   0.0000000E+00
         4        47        76   1.4840837E+03   0.0000000E+00
         4        46        60   1.3220120E+03   5.7631000E-03
         4        46        61   1.3320256E+03   4.1892817E-03
         4        46        62   1.3420392E+03   2.7936120E-03
         4        46        67   1.3921071E+03   0.0000000E+00
         4        46        68   1.4021206E+03   0.0000000E+00
         4        46        69   1.4121343E+03   0.0000000E+00
         4        46        70   1.4221478E+03   0.0000000E+00
         4        46        71   1.4321614E+03   0.0000000E+00
         4        46        72   1.4421750E+03   0.0000000E+00
         4        46        73   1.4521886E+03   0.0000000E+00
         4        45        58   1.3001305E+03   6.5280977E-03
         4        45        59   1.3101440E+03   4.7705392E-03
         4        44        55   1.2682354E+03   8.3362395E-03
         4        44        56   1.2782489E+03   6.7362846E-03
         4        44        57   1.2882625E+03   5.1170834E-03
         4        43        52   1.2363402E+03   8.8001899E-03
         4        43        53   1.2463538E+03   8.0792177E-03
         4        43        54   1.2563674E+03   6.6617746E-03
         4        42        51   1.2244723E+03   7.2426004E-03
         4        41        50   1.2126044E+03   5.6577208E-03
         4        40        48   1.1907228E+03   0.0000000E+00
         4        40        49   1.2007363E+03   3.7637041E-03
         1        40        47   1.1907228E+03   1.0684633E+10
         1        39        46   1.1843689E+03   1.0630718E+10
         1        38        44   1.1740554E+03   1.0526063E+10
         1        38        45   1.1780151E+03   1.0560371E+10
         1        37        43   1.1677017E+03   1.0479606E+10
         1        36        42   1.1613478E+03   1.0415330E+10
         1        35        41   1.1549939E+03   1.0360876E+10
         1        34        41   1.1525997E+03   1.0328291E+10
         1        33        40   1.1462458E+03   1.0273888E+10
         1        32        39   1.1398921E+03   1.0221121E+10
         1        31        39   1.1374978E+03   1.0190113E+10
         1        30        38   1.1311440E+03   1.0146020E+10
         1        29        37   1.1247902E+03   1.0098113E+10
         1        28        36   1.1184363E+03   8.2632755E+09
         1        27        35   1.1120824E+03   7.7871811E+09
         1        26        35   1.1096882E+03   7.4674181E+09
         1        25        34   1.1033344E+03   7.0742554E+09
         1        24        33   1.0969806E+03   6.7468349E+09
         1        23        31   1.0866671E+03   6.3109074E+09
         1        23        32   1.0906267E+03   6.5126144E+09
         1        22        30   1.0803132E+03   6.1947510E+09
         1        21        28   1.0699998E+03   6.0033331E+09
         1        21        29   1.0739594E+03   6.1715876E+09
         1        20        24   1.0517670E+03   5.6428795E+09
         1        20        25   1.0557267E+03   5.7934531E+09
         1        20        26   1.0596863E+03   5.9464248E+09
         1        20        27   1.0636459E+03   6.0916634E+09
         1        19        22   1.0414535E+03   5.7905055E+09
         1        19        23   1.0454131E+03   5.9011297E+09
         1        18        20   1.0311400E+03   6.0996014E+09
         1        18        21   1.0350996E+03   6.1604352E+09
         1        17        17   1.0168669E+03   6.4269123E+09
         1        17        18   1.0208265E+03   6.4409564E+09
         1        17        19   1.0247861E+03   6.4895923E+09
         1        16         6   9.7091663E+02   7.9602647E+09
         1        16         7   9.7487628E+02   7.9035960E+09
         1        16         8   9.7883594E+02   7.8303171E+09
         1        16         9   9.8279553E+02   7.7302625E+09
         1        16        10   9.8675519E+02   7.6060948E+09
         1        16        11   9.9071484E+02   7.4731162E+09
         1        16        12   9.9467450E+02   7.3393582E+09
         1        16        13   9.9863416E+02   7.2090619E+09
         1        16        14   1.0025938E+03   7.0872709E+09
         1        16        15   1.0065534E+03   7.0019830E+09
         1        16        16   1.0105131E+03   6.9556531E+09
         1        15         5   9.6456281E+02   8.4637317E+09
         1        14         4   9.5820892E+02   1.2474395E+10
         2        40        47   1.1907228E+03   1.2599142E+09
         2        39        46   1.1843689E+03   1.2599142E+09
         2        38        44   1.1740554E+03   1.2599142E+09
         2        38        45   1.1780151E+03   1.2599142E+09
         2        37        43   1.1677017E+03   1.2599142E+09
         2        36        42   1.1613478E+03   1.2599142E+09
         2        35        41   1.1549939E+03   1.2599142E+09
         2        34        41   1.1525997E+03   1.2599142E+09
         2        33        40   1.1462458E+03   1.2599142E+09
         2        32        39   1.1398921E+03   1.2599142E+09
         2        31        39   1.1374978E+03   1.2599142E+09
         2        30        38   1.1311440E+03   1.2599142E+09
         2        29        37   1.1247902E+03   1.2599142E+09
         2        28        36   1.1184363E+03   1.2599140E+09
         2        27        35   1.1120824E+03   1.2599144E+09
         2        26        35   1.1096882E+03   1.2599144E+09
         2        25        34   1.1033344E+03   1.2599141E+09
         2        24        33   1.0969806E+03   1.2599141E+09
         2        23        31   1.0866671E+03   1.2599140E+09
         2        23        32   1.0906267E+03   1.2599142E+09
         2        22        30   1.0803132E+03   1.2599142E+09
         2        21        28   1.0699998E+03   1.2599145E+09
         2        21        29   1.0739594E+03   1.2599140E+09
         2        20        24   1.0517670E+03   1.2599141E+09
         2        20        25   1.0557267E+03   1.2599140E+09
         2        20        26   1.0596863E+03   1.2599142E+09
         2        20        27   1.0636459E+03   1.2599140E+09
         2        19        22   1.0414535E+03   1.2599140E+09
         2        19        23   1.0454131E+03   1.2599144E+09
         2        18        20   1.0311400E+03   1.2599140E+09
         2        18        21   1.0350996E+03   1.2599144E+09
         2        17        17   1.0168669E+03   1.2599144E+09
         2        17        18   1.0208265E+03   1.2599140E+09
         2        17        19   1.0247861E+03   1.2599140E+09
         2        16         6   9.7091663E+02   1.2599141E+09
         2        16         7   9.7487628E+02   1.2599141E+09
         2        16         8   9.7883594E+02   1.2599142E+09
         2        16         9   9.8279553E+02   1.2599142E+09
         2        16        10   9.8675519E+02   1.2599142E+09
         2        16        11   9.9071484E+02   1.2599141E+09
         2        16        12   9.9467450E+02   1.2599142E+09
         2        16        13   9.9863416E+02   1.2599140E+09
         2        16        14   1.0025938E+03   1.2599144E+09
         2        16        15   1.0065534E+03   1.2599140E+09
         2        16        16   1.0105131E+03   1.2599141E+09
         2        15         5   9.6456281E+02   1.2599142E+09
         2        14         4   9.5820892E+02   0.0000000E+00
         3        40        47   1.1907228E+03   5.2985069E+08
         3        39        46   1.1843689E+03   5.8376576E+08
         3        38        44   1.1740554E+03   6.8842291E+08
         3        38        45   1.1780151E+03   6.5411283E+08
         3        37        43   1.1677017E+03   7.3487622E+08
         3        36        42   1.1613478E+03   7.9915046E+08
         3        35        41   1.1549939E+03   8.5360749E+08
         3        34        41   1.1525997E+03   8.8619091E+08
         3        33        40   1.1462458E+03   9.4059725E+08
         3        32        39   1.1398921E+03   9.9336250E+08
         3        31        39   1.1374978E+03   1.0243718E+09
         3        30        38   1.1311440E+03   1.0684658E+09
         3        29        37   1.1247902E+03   1.1163684E+09
         3        28        36   1.1184363E+03   2.9512077E+09
         3        27        35   1.1120824E+03   3.4273027E+09
         3        26        35   1.1096882E+03   3.7470656E+09
         3        25        34   1.1033344E+03   4.1402289E+09
         3        24        33   1.0969806E+03   4.4676490E+09
         3        23        31   1.0866671E+03   4.9035766E+09
         3        23        32   1.0906267E+03   4.7018691E+09
         3        22        30   1.0803132E+03   5.0197330E+09
         3        21        28   1.0699998E+03   5.2111503E+09
         3        21        29   1.0739594E+03   5.0428964E+09
         3        20        24   1.0517670E+03   5.5716035E+09
         3        20        25   1.0557267E+03   5.4210304E+09
         3        20        26   1.0596863E+03   5.2680581E+09
         3        20        27   1.0636459E+03   5.1228206E+09
         3        19        22   1.0414535E+03   5.4239785E+09
         3        19        23   1.0454131E+03   5.3133542E+09
         3        18        20   1.0311400E+03   5.1148820E+09
         3        18        21   1.0350996E+03   5.0540472E+09
         3        17        17   1.0168669E+03   4.7875712E+09
         3        17        18   1.0208265E+03   4.7735276E+09
         3        17        19   1.0247861E+03   4.7248911E+09
         3        16         6   9.7091663E+02   3.2542190E+09
         3        16         7   9.7487628E+02   3.3108874E+09
         3        16         8   9.7883594E+02   3.3841667E+09
         3        16         9   9.8279553E+02   3.4842212E+09
         3        16        10   9.8675519E+02   3.6083889E+09
         3        16        11   9.9071484E+02   3.7413676E+09
         3        16        12   9.9467450E+02   3.8751260E+09
         3        16        13   9.9863416E+02   4.0054226E+09
         3        16        14   1.0025938E+03   4.1272123E+09
         3        16        15   1.0065534E+03   4.2125005E+09
         3        16        16   1.0105131E+03   4.2588301E+09
         3        15         5   9.6456281E+02   2.7507528E+09
         3        14         4   9.5820892E+02   0.0000000E+00
         4        40        47   1.1907228E+03   0.0000000E+00
         4        39        46   1.1843689E+03   0.0000000E+00
         4        38        44   1.1740554E+03   0.0000000E+00
         4        38        45   1.1780151E+03   0.0000000E+00
         4        37        43   1.1677017E+03   0.0000000E+00
         4        36        42   1.1613478E+03   0.0000000E+00
         4        35        41   1.1549939E+03   0.0000000E+00
         4        34        41   1.1525997E+03   0.0000000E+00
         4        33        40   1.1462458E+03   0.0000000E+00
         4        32        39   1.1398921E+03   0.0000000E+00
         4        31        39   1.1374978E+03   0.0000000E+00
         4        30        38   1.1311440E+03   0.0000000E+00
         4        29        37   1.1247902E+03   0.0000000E+00
         4        28        36   1.1184363E+03   0.0000000E+00
         4        27        35   1.1120824E+03   0.0000000E+00
         4        26        35   1.1096882E+03   0.0000000E+00
         4        25        34   1.1033344E+03   0.0000000E+00
         4        24        33   1.0969806E+03   0.0000000E+00
         4        23        31   1.0866671E+03   0.0000000E+00
         4        23        32   1.0906267E+03   0.0000000E+00
         4        22        30   1.0803132E+03   0.0000000E+00
         4        21        28   1.0699998E+03   0.0000000E+00
         4        21        29   1.0739594E+03   0.0000000E+00
         4        20        24   1.0517670E+03   0.0000000E+00
         4        20        25   1.0557267E+03   0.0000000E+00
         4        20        26   1.0596863E+03   0.0000000E+00
         4        20        27   1.0636459E+03   0.0000000E+00
         4        19        22   1.0414535E+03   0.0000000E+00
         4        19        23   1.0454131E+03   0.0000000E+00
         4        18        20   1.0311400E+03   0.0000000E+00
         4        18        21   1.0350996E+03   0.0000000E+00
         4        17        17   1.0168669E+03   0.0000000E+00
         4        17        18   1.0208265E+03   0.0000000E+00
         4        17        19   1.0247861E+03   0.0000000E+00
         4        16         6   9.7091663E+02   0.0000000E+00
         4        16         7   9.7487628E+02   0.0000000E+00
         4        16         8   9.7883594E+02   0.0000000E+00
         4        16         9   9.8279553E+02   0.0000000E+00
         4        16        10   9.8675519E+02   0.0000000E+00
         4        16        11   9.9071484E+02   0.0000000E+00
         4        16        12   9.9467450E+02   0.0000000E+00
         4        16        13   9.9863416E+02   0.0000000E+00
         4        16        14   1.0025938E+03   0.0000000E+00
         4        16        15   1.0065534E+03   0.0000000E+00
         4        16        16   1.0105131E+03   0.0000000E+00
         4        15         5   9.6456281E+02   0.0000000E+00
         4        14         4   9.5820892E+02   0.0000000E+00
         1       119       192   2.4579958E+03   2.7968572E-03
         1       118       191   2.4520459E+03   1.3186981E-03
         1       117       191   2.4449058E+03   1.3994484E-03
         1       116       190   2.4389558E+03   1.5798814E-03
         1       115       190   2.4318159E+03   1.7877865E-03