# HFB6 package for  MODFLOW-NWT, generated by Flopy.
         0         0      2972
         1        69       188        68       188  5.99184e-05
         2        69       188        68       188  5.99184e-05
         3        69       188        68       188  5.99184e-05
         4        69       188        68       188  5.99184e-05
         1        69       189        69       188  5.99184e-05
         2        69       189        69       188  5.99184e-05
         3        69       189        69       188  5.99184e-05
         4        69       189        69       188  5.99184e-05
         1        70       189        69       189  5.99184e-05
         2        70       189        69       189  5.99184e-05
         3        70       189        69       189  5.99184e-05
         4        70       189        69       189  5.99184e-05
         1        70       190        70       189  5.99184e-05
         2        70       190        70       189  5.99184e-05
         3        70       190        70       189  5.99184e-05
         4        70       190        70       189  5.99184e-05
         1        71       190        70       190  5.99184e-05
         2        71       190        70       190  5.99184e-05
         3        71       190        70       190  5.99184e-05
         4        71       190        70       190  5.99184e-05
         1        71       191        70       191  5.99184e-05
         2        71       191        70       191  5.99184e-05
         3        71       191        70       191  5.99184e-05
         4        71       191        70       191  5.99184e-05
         1        71       192        71       191  5.99184e-05
         2        71       192        71       191  5.99184e-05
         3        71       192        71       191  5.99184e-05
         4        71       192        71       191  5.99184e-05
         1        72       192        71       192  5.99184e-05
         2        72       192        71       192  5.99184e-05
         3        72       192        71       192  5.99184e-05
         4        72       192        71       192  5.99184e-05
         1        72       193        71       193  5.99184e-05
         2        72       193        71       193  5.99184e-05
         3        72       193        71       193  5.99184e-05
         4        72       193        71       193  5.99184e-05
         1        72       194        72       193  5.99184e-05
         2        72       194        72       193  5.99184e-05
         3        72       194        72       193  5.99184e-05
         4        72       194        72       193  5.99184e-05
         1        73       194        72       194  5.99184e-05
         2        73       194        72       194  5.99184e-05
         3        73       194        72       194  5.99184e-05
         4        73       194        72       194  5.99184e-05
         1        73       195        73       194  5.99184e-05
         2        73       195        73       194  5.99184e-05
         3        73       195        73       194  5.99184e-05
         4        73       195        73       194  5.99184e-05
         1        74       195        73       195  5.99184e-05
         2        74       195        73       195  5.99184e-05
         3        74       195        73       195  5.99184e-05
         4        74       195        73       195  5.99184e-05
         1        74       196        74       195  5.99184e-05
         2        74       196        74       195  5.99184e-05
         3        74       196        74       195  5.99184e-05
         4        74       196        74       195  5.99184e-05
         1        75       196        74       196  5.99184e-05
         2        75       196        74       196  5.99184e-05
         3        75       196        74       196  5.99184e-05
         4        75       196        74       196  5.99184e-05
         1        75       197        75       196  5.99184e-05
         2        75       197        75       196  5.99184e-05
         3        75       197        75       196  5.99184e-05
         4        75       197        75       196  5.99184e-05
         1        76       197        75       197  5.99184e-05
         2        76       197        75       197  5.99184e-05
         3        76       197        75       197  5.99184e-05
         4        76       197        75       197  5.99184e-05
         1        76       198        76       197  5.99184e-05
         2        76       198        76       197  5.99184e-05
         3        76       198        76       197  5.99184e-05
         4        76       198        76       197  5.99184e-05
         1        77       198        77       197  5.99184e-05
         2        77       198        77       197  5.99184e-05
         3        77       198        77       197  5.99184e-05
         4        77       198        77       197  5.99184e-05
         1        78       198        77       198  5.99184e-05
         2        78       198        77       198  5.99184e-05
         3        78       198        77       198  5.99184e-05
         4        78       198        77       198  5.99184e-05
         1        78       199        78       198  5.99184e-05
         2        78       199        78       198  5.99184e-05
         3        78       199        78       198  5.99184e-05
         4        78       199        78       198  5.99184e-05
         1        79       199        78       199  5.99184e-05
         2        79       199        78       199  5.99184e-05
         3        79       199        78       199  5.99184e-05
         4        79       199        78       199  5.99184e-05
         1        79       200        79       199  5.99184e-05
         2        79       200        79       199  5.99184e-05
         3        79       200        79       199  5.99184e-05
         4        79       200        79       199  5.99184e-05
         1        80       200        79       200  5.99184e-05
         2        80       200        79       200  5.99184e-05
         3        80       200        79       200  5.99184e-05
         4        80       200        79       200  5.99184e-05
         1        80       201        80       200  5.99184e-05
         2        80       201        80       200  5.99184e-05
         3        80       201        80       200  5.99184e-05
         4        80       201        80       200  5.99184e-05
         1        81       201        81       200  5.99184e-05
         2        81       201        81       200  5.99184e-05
         3        81       201        81       200  5.99184e-05
         4        81       201        81       200  5.99184e-05
         1        82       201        81       201  5.99184e-05
         2        82       201        81       201  5.99184e-05
         3        82       201        81       201  5.99184e-05
         4        82       201        81       201  5.99184e-05
         1        82       202        82       201  5.99184e-05
         2        82       202        82       201  5.99184e-05
         3        82       202        82       201  5.99184e-05
         4        82       202        82       201  5.99184e-05
         1        83       202        82       202  5.99184e-05
         2        83       202        82       202  5.99184e-05
         3        83       202        82       202  5.99184e-05
         4        83       202        82       202  5.99184e-05
         1        83       203        82       203  5.99184e-05
         2        83       203        82       203  5.99184e-05
         3        83       203        82       203  5.99184e-05
         4        83       203        82       203  5.99184e-05
         1        83       204        83       203  5.99184e-05
         2        83       204        83       203  5.99184e-05
         3        83       204        83       203  5.99184e-05
         4        83       204        83       203  5.99184e-05
         1        84       204        83       204  5.99184e-05
         2        84       204        83       204  5.99184e-05
         3        84       204        83       204  5.99184e-05
         4        84       204        83       204  5.99184e-05
         1        84       205        83       205  5.99184e-05
         2        84       205        83       205  5.99184e-05
         3        84       205        83       205  5.99184e-05
         4        84       205        83       205  5.99184e-05
         1        84       206        83       206  5.99184e-05
         2        84       206        83       206  5.99184e-05
         3        84       206        83       206  5.99184e-05
         4        84       206        83       206  5.99184e-05
         1        84       207        84       206  5.99184e-05
         2        84       207        84       206  5.99184e-05
         3        84       207        84       206  5.99184e-05
         4        84       207        84       206  5.99184e-05
         1        85       207        84       207  5.99184e-05
         2        85       207        84       207  5.99184e-05
         3        85       207        84       207  5.99184e-05
         4        85       207        84       207  5.99184e-05
         1        85       208        84       208  5.99184e-05
         2        85       208        84       208  5.99184e-05
         3        85       208        84       208  5.99184e-05
         4        85       208        84       208  5.99184e-05
         1        85       209        84       209  5.99184e-05
         2        85       209        84       209  5.99184e-05
         3        85       209        84       209  5.99184e-05
         4        85       209        84       209  5.99184e-05
         1        85       210        85       209  5.99184e-05
         2        85       210        85       209  5.99184e-05
         3        85       210        85       209  5.99184e-05
         4        85       210        85       209  5.99184e-05
         1        86       210        85       210  5.99184e-05
         2        86       210        85       210  5.99184e-05
         3        86       210        85       210  5.99184e-05
         4        86       210        85       210  5.99184e-05
         1        53        97        52        97      390.783
         2        53        97        52        97      390.783
         3        53        97        52        97      390.783
         4        53        97        52        97      390.783
         1        53        98        53        97      390.783
         2        53        98        53        97      390.783
         3        53        98        53        97      390.783
         4        53        98        53        97      390.783
         1        54        98        53        98      390.783
         2        54        98        53        98      390.783
         3        54        98        53        98      390.783
         4        54        98        53        98      390.783
         1        54        99        53        99      390.783
         2        54        99        53        99      390.783
         3        54        99        53        99      390.783
         4        54        99        53        99      390.783
         1        54       100        53       100      390.783
         2        54       100        53       100      390.783
         3        54       100        53       100      390.783
         4        54       100        53       100      390.783
         1        54       101        54       100      390.783
         2        54       101        54       100      390.783
         3        54       101        54       100      390.783
         4        54       101        54       100      390.783
         1        55       101        54       101      390.783
         2        55       101        54       101      390.783
         3        55       101        54       101      390.783
         4        55       101        54       101      390.783
         1        55       102        54       102      390.783
         2        55       102        54       102      390.783
         3        55       102        54       102      390.783
         4        55       102        54       102      390.783
         1        55       103        55       102      390.783
         2        55       103        55       102      390.783
         3        55       103        55       102      390.783
         4        55       103        55       102      390.783
         1        56       103        55       103      390.783
         2        56       103        55       103      390.783
         3        56       103        55       103      390.783
         4        56       103        55       103      390.783
         1        56       104        55       104      390.783
         2        56       104        55       104      390.783
         3        56       104        55       104      390.783
         4        56       104        55       104      390.783
         1        56       105        56       104      390.783
         2        56       105        56       104      390.783
         3        56       105        56       104      390.783
         4        56       105        56       104      390.783
         1        57       105        56       105      390.783
         2        57       105        56       105      390.783
         3        57       105        56       105      390.783
         4        57       105        56       105      390.783
         1        57       106        56       106      390.783
         2        57       106        56       106      390.783
         3        57       106        56       106      390.783
         4        57       106        56       106      390.783
         1        57       107        56       107      390.783
         2        57       107        56       107      390.783
         3        57       107        56       107      390.783
         4        57       107        56       107      390.783
         1        57       108        57       107      390.783
         2        57       108        57       107      390.783
         3        57       108        57       107      390.783
         4        57       108        57       107      390.783
         1        58       108        57       108      390.783
         2        58       108        57       108      390.783
         3        58       108        57       108      390.783
         4        58       108        57       108      390.783
         1        58       109        57       109      390.783
         2        58       109        57       109      390.783
         3        58       109        57       109      390.783
         4        58       109        57       109      390.783
         1        58       110        58       109      390.783
         2        58       110        58       109      390.783
         3        58       110        58       109      390.783
         4        58       110        58       109      390.783
         1        59       110        58       110      390.783
         2        59       110        58       110      390.783
         3        59       110        58       110      390.783
         4        59       110        58       110      390.783
         1        59       111        58       111      390.783
         2        59       111        58       111      390.783
         3        59       111        58       111      390.783
         4        59       111        58       111      390.783
         1        59       112        58       112      390.783
         2        59       112        58       112      390.783
         3        59       112        58       112      390.783
         4        59       112        58       112      390.783
         1        59       113        59       112      390.783
         2        59       113        59       112      390.783
         3        59       113        59       112      390.783
         4        59       113        59       112      390.783
         1        60       113        59       113      390.783
         2        60       113        59       113      390.783
         3        60       113        59       113      390.783
         4        60       113        59       113      390.783
         1        60       114        59       114      390.783
         2        60       114        59       114      390.783
         3        60       114        59       114      390.783
         4        60       114        59       114      390.783
         1        60       115        59       115      390.783
         2        60       115        59       115      390.783
         3        60       115        59       115      390.783
         4        60       115        59       115      390.783
         1        60       116        60       115      390.783
         2        60       116        60       115      390.783
         3        60       116        60       115      390.783
         4        60       116        60       115      390.783
         1        61       116        60       116      390.783
         2        61       116        60       116      390.783
         3        61       116        60       116      390.783
         4        61       116        60       116      390.783
         1        61       117        60       117      390.783
         2        61       117        60       117      390.783
         3        61       117        60       117      390.783
         4        61       117        60       117      390.783
         1        61       118        60       118      390.783
         2        61       118        60       118      390.783
         3        61       118        60       118      390.783
         4        61       118        60       118      390.783
         1        61       119        61       118      390.783
         2        61       119        61       118      390.783
         3        61       119        61       118      390.783
         4        61       119        61       118      390.783
         1        62       119        61       119      390.783
         2        62       119        61       119      390.783
         3        62       119        61       119      390.783
         4        62       119        61       119      390.783
         1        62       120        61       120      390.783
         2        62       120        61       120      390.783
         3        62       120        61       120      390.783
         4        62       120        61       120      390.783
         1        62       121        61       121      390.783
         2        62       121        61       121      390.783
         3        62       121        61       121      390.783
         4        62       121        61       121      390.783
         1        62       122        62       121      390.783
         2        62       122        62       121      390.783
         3        62       122        62       121      390.783
         4        62       122        62       121      390.783
         1        63       122        62       122      390.783
         2        63       122        62       122      390.783
         3        63       122        62       122      390.783
         4        63       122        62       122      390.783
         1        63       123        62       123      390.783
         2        63       123        62       123      390.783
         3        63       123        62       123      390.783
         4        63       123        62       123      390.783
         1        63       124        62       124      390.783
         2        63       124        62       124      390.783
         3        63       124        62       124      390.783
         4        63       124        62       124      390.783
         1        63       125        63       124      390.783
         2        63       125        63       124      390.783
         3        63       125        63       124      390.783
         4        63       125        63       124      390.783
         1        64       125        63       125      390.783
         2        64       125        63       125      390.783
         3        64       125        63       125      390.783
         4        64       125        63       125      390.783
         1        64       126        63       126      390.783
         2        64       126        63       126      390.783
         3        64       126        63       126      390.783
         4        64       126        63       126      390.783
         1        64       127        63       127      390.783
         2        64       127        63       127      390.783
         3        64       127        63       127      390.783
         4        64       127        63       127      390.783
         1        64       128        64       127      390.783
         2        64       128        64       127      390.783
         3        64       128        64       127      390.783
         4        64       128        64       127      390.783
         1        65       128        64       128      390.783
         2        65       128        64       128      390.783
         3        65       128        64       128      390.783
         4        65       128        64       128      390.783
         1        65       129        64       129      390.783
         2        65       129        64       129      390.783
         3        65       129        64       129      390.783
         4        65       129        64       129      390.783
         1        65       130        64       130      390.783
         2        65       130        64       130      390.783
         3        65       130        64       130      390.783
         4        65       130        64       130      390.783
         1        65       131        65       130      390.783
         2        65       131        65       130      390.783
         3        65       131        65       130      390.783
         4        65       131        65       130      390.783
         1        66       131        65       131      390.783
         2        66       131        65       131      390.783
         3        66       131        65       131      390.783
         4        66       131        65       131      390.783
         1        66       132        65       132      390.783
         2        66       132        65       132      390.783
         3        66       132        65       132      390.783
         4        66       132        65       132      390.783
         1        66       133        65       133      390.783
         2        66       133        65       133      390.783
         3        66       133        65       133      390.783
         4        66       133        65       133      390.783
         1        66       134        66       133      390.783
         2        66       134        66       133      390.783
         3        66       134        66       133      390.783
         4        66       134        66       133      390.783
         1        67       134        66       134      390.783
         2        67       134        66       134      390.783
         3        67       134        66       134      390.783
         4        67       134        66       134      390.783
         1        67       135        66       135      390.783
         2        67       135        66       135      390.783
         3        67       135        66       135      390.783
         4        67       135        66       135      390.783
         1        67       136        66       136      390.783
         2        67       136        66       136      390.783
         3        67       136        66       136      390.783
         4        67       136        66       136      390.783
         1        67       137        66       137      390.783
         2        67       137        66       137      390.783
         3        67       137        66       137      390.783
         4        67       137        66       137      390.783
         1        67       138        67       137      390.783
         2        67       138        67       137      390.783
         3        67       138        67       137      390.783
         4        67       138        67       137      390.783
         1        68       138        67       138      390.783
         2        68       138        67       138      390.783
         3        68       138        67       138      390.783
         4        68       138        67       138      390.783
         1        68       139        67       139      390.783
         2        68       139        67       139      390.783
         3        68       139        67       139      390.783
         4        68       139        67       139      390.783
         1        68       140        67       140      390.783
         2        68       140        67       140      390.783
         3        68       140        67       140      390.783
         4        68       140        67       140      390.783
         1        68       141        68       140      390.783
         2        68       141        68       140      390.783
         3        68       141        68       140      390.783
         4        68       141        68       140      390.783
         1        69       141        68       141      390.783
         2        69       141        68       141      390.783
         3        69       141        68       141      390.783
         4        69       141        68       141      390.783
         1        69       142        68       142      390.783
         2        69       142        68       142      390.783
         3        69       142        68       142      390.783
         4        69       142        68       142      390.783
         1        69       143        68       143      390.783
         2        69       143        68       143      390.783
         3        69       143        68       143      390.783
         4        69       143        68       143      390.783
         1        69       144        68       144      390.783
         2        69       144        68       144      390.783
         3        69       144        68       144      390.783
         4        69       144        68       144      390.783
         1        69       145        69       144      390.783
         2        69       145        69       144      390.783
         3        69       145        69       144      390.783
         4        69       145        69       144      390.783
         1        70       145        69       145      390.783
         2        70       145        69       145      390.783
         3        70       145        69       145      390.783
         4        70       145        69       145      390.783
         1        70       146        69       146      390.783
         2        70       146        69       146      390.783
         3        70       146        69       146      390.783
         4        70       146        69       146      390.783
         1        70       147        69       147      390.783
         2        70       147        69       147      390.783
         3        70       147        69       147      390.783
         4        70       147        69       147      390.783
         1        70       148        70       147      390.783
         2        70       148        70       147      390.783
         3        70       148        70       147      390.783
         4        70       148        70       147      390.783
         1        71       148        70       148      390.783
         2        71       148        70       148      390.783
         3        71       148        70       148      390.783
         4        71       148        70       148      390.783
         1        71       149        70       149      390.783
         2        71       149        70       149      390.783
         3        71       149        70       149      390.783
         4        71       149        70       149      390.783
         1        71       150        70       150      390.783
         2        71       150        70       150      390.783
         3        71       150        70       150      390.783
         4        71       150        70       150      390.783
         1        71       151        70       151      390.783
         2        71       151        70       151      390.783
         3        71       151        70       151      390.783
         4        71       151        70       151      390.783
         1        71       152        71       151      390.783
         2        71       152        71       151      390.783
         3        71       152        71       151      390.783
         4        71       152        71       151      390.783
         1        72       152        71       152      390.783
         2        72       152        71       152      390.783
         3        72       152        71       152      390.783
         4        72       152        71       152      390.783
         1        72       153        71       153      390.783
         2        72       153        71       153      390.783
         3        72       153        71       153      390.783
         4        72       153        71       153      390.783
         1        72       154        71       154      390.783
         2        72       154        71       154      390.783
         3        72       154        71       154      390.783