# WEL package for  MODFLOW-NWT, generated by Flopy.
        98         1 
        23         0 # stress period 1
         3        68       156  -8.0532082E+01
         2        62       137  -4.5903289E+04
         2        64       140  -3.1246449E+04
         2        66       137  -2.5206543E+04
         2        64       135  -5.0493617E+04
         2        11       177  -1.4012582E+04
         2        11       177  -2.3354304E+03
         2        26       146  -1.1596620E+04
         2        25       152  -2.2548982E+04
         2        57       144  -3.6400500E+04
         2        18       191  -1.2885134E+04
         2        11       177  -2.3354305E+04
         2        23       176  -2.3354305E+04
         4        91       158  -3.6996001E+03
         4        93       157  -2.2675000E+03
         4        99       189  -1.1576000E+04
         4        87       154  -2.9836001E+03
         3       117       178  -5.9671001E+01
         2        84       146  -1.6589000E+04
         2        84       145  -5.2013000E+04
         4        84       145  -2.9139000E+04
         2        85       144  -4.7737002E+03
         4        82       107  -2.3749000E+04
        13         0 # stress period 2
         3        68       156  -7.7226547E+01
         2        62       137  -4.4019129E+04
         2        64       140  -2.9963898E+04
         2        66       137  -2.4171908E+04
         2        64       135  -4.8421043E+04
         2        11       177  -1.3437419E+04
         2        11       177  -2.2395698E+03
         2        26       146  -1.1120622E+04
         2        25       152  -2.1623432E+04
         2        57       144  -3.4906398E+04
         2        18       191  -1.2356247E+04
         2        11       177  -2.2395697E+04
         2        23       176  -2.2395697E+04
        13         0 # stress period 3
         3        68       156  -8.3067467E+01
         2        62       137  -4.7348457E+04
         2        64       140  -3.2230176E+04
         2        66       137  -2.6000117E+04
         2        64       135  -5.2083301E+04
         2        11       177  -1.4453739E+04
         2        11       177  -2.4089565E+03
         2        26       146  -1.1961715E+04
         2        25       152  -2.3258891E+04
         2        57       144  -3.7546496E+04
         2        18       191  -1.3290795E+04
         2        11       177  -2.4089564E+04
         2        23       176  -2.4089564E+04
        23         0 # stress period 4
         3        68       156  -1.1811421E+02
         2        62       137  -6.7325102E+04
         2        64       140  -4.5828316E+04
         2        66       137  -3.6969750E+04
         2        64       135  -7.4057609E+04
         2        11       177  -2.0551873E+04
         2        11       177  -3.4253123E+03
         2        26       146  -1.7008447E+04
         2        25       152  -3.3071980E+04
         2        57       144  -5.3387625E+04
         2        18       191  -1.8898275E+04
         2        11       177  -3.4253121E+04
         2        23       176  -3.4253121E+04
         4        91       158  -3.6996001E+03
         4        93       157  -2.2675000E+03
         4        99       189  -1.1576000E+04
         4        87       154  -2.9836001E+03
         3       117       178  -5.9671001E+01
         2        84       146  -1.6589000E+04
         2        84       145  -5.2013000E+04
         4        84       145  -2.9139000E+04
         2        85       144  -4.7737002E+03
         4        82       107  -2.3749000E+04
        13         0 # stress period 5
         3        68       156  -1.3136981E+02
         2        62       137  -7.4880797E+04
         2        64       140  -5.0971488E+04
         2        66       137  -4.1118750E+04
         2        64       135  -8.2368875E+04
         2        11       177  -2.2858348E+04
         2        11       177  -3.8097246E+03
         2        26       146  -1.8917254E+04
         2        25       152  -3.6783547E+04
         2        57       144  -5.9379156E+04
         2        18       191  -2.1019170E+04
         2        11       177  -3.8097246E+04
         2        23       176  -3.8097246E+04
        13         0 # stress period 6
         3        68       156  -1.6409479E+02
         2        62       137  -9.3534031E+04
         2        64       140  -6.3668777E+04
         2        66       137  -5.1361668E+04
         2        64       135  -1.0288743E+05
         2        11       177  -2.8552492E+04
         2        11       177  -4.7587490E+03
         2        26       146  -2.3629648E+04
         2        25       152  -4.5946539E+04
         2        57       144  -7.4170844E+04
         2        18       191  -2.6255166E+04
         2        11       177  -4.7587488E+04
         2        23       176  -4.7587488E+04
        13         0 # stress period 7
         3        68       156  -1.6629695E+02
         2        62       137  -9.4789258E+04
         2        64       140  -6.4523215E+04
         2        66       137  -5.2050945E+04
         2        64       135  -1.0426819E+05
         2        11       177  -2.8935668E+04
         2        11       177  -4.8226113E+03
         2        26       146  -2.3946760E+04
         2        25       152  -4.6563145E+04
         2        57       144  -7.5166219E+04
         2        18       191  -2.6607512E+04
         2        11       177  -4.8226113E+04
         2        23       176  -4.8226113E+04
        13         0 # stress period 8
         3        68       156  -1.6111246E+02
         2        62       137  -9.1834102E+04
         2        64       140  -6.2511633E+04
         2        66       137  -5.0428199E+04
         2        64       135  -1.0101752E+05
         2        11       177  -2.8033568E+04
         2        11       177  -4.6722612E+03
         2        26       146  -2.3200193E+04
         2        25       152  -4.5111488E+04
         2        57       144  -7.2822828E+04
         2        18       191  -2.5777994E+04
         2        11       177  -4.6722613E+04
         2        23       176  -4.6722613E+04
        13         0 # stress period 9
         3        68       156  -1.5406352E+02
         2        62       137  -8.7816211E+04
         2        64       140  -5.9776648E+04
         2        66       137  -4.8221883E+04
         2        64       135  -9.6597828E+04
         2        11       177  -2.6807053E+04
         2        11       177  -4.4678423E+03
         2        26       146  -2.2185148E+04
         2        25       152  -4.3137785E+04
         2        57       144  -6.9636711E+04
         2        18       191  -2.4650164E+04
         2        11       177  -4.4678422E+04
         2        23       176  -4.4678422E+04
        13         0 # stress period 10
         3        68       156  -1.2756245E+02
         2        62       137  -7.2710602E+04
         2        64       140  -4.9494234E+04
         2        66       137  -3.9927047E+04
         2        64       135  -7.9981656E+04
         2        11       177  -2.2195867E+04
         2        11       177  -3.6993113E+03
         2        26       146  -1.8368994E+04
         2        25       152  -3.5717488E+04
         2        57       144  -5.7658230E+04
         2        18       191  -2.0409992E+04
         2        11       177  -3.6993113E+04
         2        23       176  -3.6993113E+04
        13         0 # stress period 11
         3        68       156  -1.0184631E+02
         2        62       137  -5.8052398E+04
         2        64       140  -3.9516371E+04
         2        66       137  -3.1877896E+04
         2        64       135  -6.3857641E+04
         2        11       177  -1.7721260E+04
         2        11       177  -2.9535432E+03
         2        26       146  -1.4665869E+04
         2        25       152  -2.8516969E+04
         2        57       144  -4.6034535E+04
         2        18       191  -1.6295410E+04
         2        11       177  -2.9535432E+04
         2        23       176  -2.9535432E+04
        23         0 # stress period 12
         3        68       156  -6.4703667E+01
         2        62       137  -3.6881086E+04
         2        64       140  -2.5105021E+04
         2        66       137  -2.0252246E+04
         2        64       135  -4.0569195E+04
         2        11       177  -1.1258438E+04
         2        11       177  -1.8764062E+03
         2        26       146  -9.3173271E+03
         2        25       152  -1.8117025E+04
         2        57       144  -2.9246055E+04
         2        18       191  -1.0352586E+04
         2        11       177  -1.8764062E+04
         2        23       176  -1.8764062E+04
         4        91       158  -3.6996001E+03
         4        93       157  -2.2675000E+03
         4        99       189  -1.1576000E+04
         4        87       154  -2.9836001E+03
         3       117       178  -5.9671001E+01
         2        84       146  -1.6589000E+04
         2        84       145  -5.2013000E+04
         4        84       145  -2.9139000E+04
         2        85       144  -4.7737002E+03
         4        82       107  -2.3749000E+04
        27         0 # stress period 13
         3        68       156  -8.0532082E+01
         2        62       137  -4.0749234E+04
         2        64       140  -2.7703037E+04
         2        66       137  -2.2387920E+04
         2        64       135  -4.9285637E+04
         2        20       153  -2.0294086E+04
         2        11       177  -1.4012582E+04
         2        11       177  -2.3354304E+03
         2        58       128  -1.2079812E+03
         2        25       152  -2.2548982E+04
         2        57       144  -3.3904008E+04
         2        18       191  -1.1677152E+04
         2        11       177  -2.3354305E+04
         2        23       176  -2.3354305E+04
         2        40       126  -8.2142725E+03
         2        33       144  -3.3179219E+04
         2        32       143  -3.3179219E+04
         4        91       158  -3.6895000E+03
         4        93       157  -2.2613000E+03
         4        99       189  -1.1545000E+04
         4        87       154  -3.5705000E+03
         3       117       178  -1.1902000E+02
         2        84       146  -1.6543000E+04
         2        84       145  -5.1871000E+04
         4        84       145  -2.9060000E+04
         2        85       144  -4.7607002E+03
         4        82       107  -2.3684000E+04
        17         0 # stress period 14
         3        68       156  -7.4563560E+01
         2        62       137  -3.7729160E+04
         2        64       140  -2.5649865E+04
         2        66       137  -2.0728670E+04
         2        64       135  -4.5632898E+04
         2        20       153  -1.8790018E+04
         2        11       177  -1.2974060E+04
         2        11       177  -2.1623433E+03
         2        58       128  -1.1184534E+03
         2        25       152  -2.0877797E+04
         2        57       144  -3.1391258E+04
         2        18       191  -1.0811716E+04
         2        11       177  -2.1623432E+04
         2        23       176  -2.1623432E+04
         2        40       126  -7.6054829E+03
         2        33       144  -3.0720188E+04
         2        32       143  -3.0720188E+04
        17         0 # stress period 15
         3        68       156  -8.3067467E+01
         2        62       137  -4.2032137E+04
         2        64       140  -2.8575209E+04
         2        66       137  -2.3092756E+04
         2        64       135  -5.0837289E+04
         2        20       153  -2.0933002E+04
         2        11       177  -1.4453739E+04
         2        11       177  -2.4089565E+03
         2        58       128  -1.2460120E+03
         2        25       152  -2.3258891E+04
         2        57       144  -3.4971402E+04
         2        18       191  -1.2044782E+04
         2        11       177  -2.4089564E+04
         2        23       176  -2.4089564E+04
         2        40       126  -8.4728818E+03
         2        33       144  -3.4223797E+04
         2        32       143  -3.4223797E+04
        27         0 # stress period 16
         3        68       156  -1.1811421E+02
         2        62       137  -5.9765793E+04
         2        64       140  -4.0631289E+04
         2        66       137  -3.2835750E+04
         2        64       135  -7.2285898E+04
         2        20       153  -2.9764783E+04
         2        11       177  -2.0551873E+04
         2        11       177  -3.4253123E+03
         2        58       128  -1.7717133E+03
         2        25       152  -3.3071980E+04
         2        57       144  -4.9726086E+04
         2        18       191  -1.7126561E+04
         2        11       177  -3.4253121E+04
         2        23       176  -3.4253121E+04
         2        40       126  -1.2047650E+04
         2        33       144  -4.8663059E+04
         2        32       143  -4.8663059E+04
         4        91       158  -3.6895000E+03
         4        93       157  -2.2613000E+03
         4        99       189  -1.1545000E+04
         4        87       154  -3.5705000E+03
         3       117       178  -1.1902000E+02
         2        84       146  -1.6543000E+04
         2        84       145  -5.1871000E+04
         4        84       145  -2.9060000E+04
         2        85       144  -4.7607002E+03
         4        82       107  -2.3684000E+04
        17         0 # stress period 17
         3        68       156  -1.3136981E+02
         2        62       137  -6.6473125E+04
         2        64       140  -4.5191215E+04
         2        66       137  -3.6520809E+04
         2        64       135  -8.0398328E+04
         2        20       153  -3.3105191E+04
         2        11       177  -2.2858348E+04
         2        11       177  -3.8097246E+03
         2        58       128  -1.9705472E+03
         2        25       152  -3.6783547E+04
         2        57       144  -5.5306691E+04
         2        18       191  -1.9048623E+04
         2        11       177  -3.8097246E+04
         2        23       176  -3.8097246E+04
         2        40       126  -1.3399721E+04
         2        33       144  -5.4124363E+04
         2        32       143  -5.4124363E+04
        17         0 # stress period 18
         3        68       156  -1.6409479E+02
         2        62       137  -8.3031961E+04
         2        64       140  -5.6448605E+04
         2        66       137  -4.5618352E+04
         2        64       135  -1.0042601E+05
         2        20       153  -4.1351887E+04
         2        11       177  -2.8552492E+04
         2        11       177  -4.7587490E+03
         2        58       128  -2.4614219E+03
         2        25       152  -4.5946539E+04
         2        57       144  -6.9083906E+04
         2        18       191  -2.3793744E+04
         2        11       177  -4.7587488E+04
         2        23       176  -4.7587488E+04
         2        40       126  -1.6737668E+04
         2        33       144  -6.7607055E+04
         2        32       143  -6.7607055E+04
        17         0 # stress period 19
         3        68       156  -1.6629695E+02
         2        62       137  -8.4146258E+04
         2        64       140  -5.7206148E+04
         2        66       137  -4.6230551E+04
         2        64       135  -1.0177373E+05
         2        20       153  -4.1906832E+04
         2        11       177  -2.8935668E+04
         2        11       177  -4.8226113E+03
         2        58       128  -2.4944541E+03
         2        25       152  -4.6563145E+04
         2        57       144  -7.0011016E+04
         2        18       191  -2.4113057E+04
         2        11       177  -4.8226113E+04
         2        23       176  -4.8226113E+04
         2        40       126  -1.6962289E+04
         2        33       144  -6.8514344E+04
         2        32       143  -6.8514344E+04
        17         0 # stress period 20
         3        68       156  -1.6111246E+02
         2        62       137  -8.1522906E+04
         2        64       140  -5.5422688E+04
         2        66       137  -4.4789266E+04
         2        64       135  -9.8600828E+04
         2        20       153  -4.0600340E+04
         2        11       177  -2.8033568E+04
         2        11       177  -4.6722612E+03
         2        58       128  -2.4166870E+03
         2        25       152  -4.5111488E+04
         2        57       144  -6.7828344E+04
         2        18       191  -2.3361307E+04
         2        11       177  -4.6722613E+04
         2        23       176  -4.6722613E+04
         2        40       126  -1.6433471E+04
         2        33       144  -6.6378336E+04
         2        32       143  -6.6378336E+04
        17         0 # stress period 21
         3        68       156  -1.5406352E+02
         2        62       137  -7.7956141E+04
         2        64       140  -5.2997852E+04
         2        66       137  -4.2829660E+04
         2        64       135  -9.4286875E+04
         2        20       153  -3.8824008E+04
         2        11       177  -2.6807053E+04
         2        11       177  -4.4678423E+03
         2        58       128  -2.3109529E+03
         2        25       152  -4.3137785E+04
         2        57       144  -6.4860742E+04
         2        18       191  -2.2339211E+04
         2        11       177  -4.4678422E+04
         2        23       176  -4.4678422E+04
         2        40       126  -1.5714479E+04
         2        33       144  -6.3474172E+04
         2        32       143  -6.3474172E+04
        27         0 # stress period 22
         3        68       156  -1.2756245E+02
         2        62       137  -6.4546602E+04
         2        64       140  -4.3881484E+04
         2        66       137  -3.5462363E+04
         2        64       135  -7.8068227E+04
         2        20       153  -3.2145738E+04
         2        11       177  -2.2195867E+04
         2        11       177  -3.6993113E+03
         2        58       128  -1.9134369E+03
         2        25       152  -3.5717488E+04
         2        57       144  -5.3703793E+04
         2        18       191  -1.8496557E+04
         2        11       177  -3.6993113E+04
         2        23       176  -3.6993113E+04
         2        40       126  -1.3011370E+04
         2        33       144  -5.2555730E+04
         2        32       143  -5.2555730E+04
         4        91       158  -3.6895000E+03
         4        93       157  -2.2613000E+03
         4        99       189  -1.1545000E+04
         4        87       154  -3.5705000E+03
         3       117       178  -1.1902000E+02
         2        84       146  -1.6543000E+04
         2        84       145  -5.1871000E+04
         4        84       145  -2.9060000E+04
         2        85       144  -4.7607002E+03
         4        82       107  -2.3684000E+04
        17         0 # stress period 23
         3        68       156  -1.0184631E+02
         2        62       137  -5.1534234E+04
         2        64       140  -3.5035133E+04
         2        66       137  -2.8313275E+04
         2        64       135  -6.2329945E+04
         2        20       153  -2.5665271E+04
         2        11       177  -1.7721260E+04
         2        11       177  -2.9535432E+03
         2        58       128  -1.5276947E+03
         2        25       152  -2.8516969E+04
         2        57       144  -4.2877301E+04
         2        18       191  -1.4767716E+04
         2        11       177  -2.9535432E+04
         2        23       176  -2.9535432E+04
         2        40       126  -1.0388324E+04
         2        33       144  -4.1960684E+04
         2        32       143  -4.1960684E+04
        17         0 # stress period 24
         3        68       156  -6.4703667E+01
         2        62       137  -3.2740053E+04
         2        64       140  -2.2258061E+04
         2        66       137  -1.7987619E+04
         2        64       135  -3.9598641E+04
         2        20       153  -1.6305323E+04
         2        11       177  -1.1258438E+04
         2        11       177  -1.8764062E+03
         2        58       128  -9.7055493E+02
         2        25       152  -1.8117025E+04
         2        57       144  -2.7240242E+04
         2        18       191  -9.3820312E+03
         2        11       177  -1.8764062E+04
         2        23       176  -1.8764062E+04
         2        40       126  -6.5997734E+03
         2        33       144  -2.6657908E+04
         2        32       143  -2.6657908E+04
        35         0 # stress period 25
         3        68       156  -8.0532082E+01
         2        62       137  -3.6803160E+04
         2        64       140  -2.5045479E+04
         2        66       137  -1.8522379E+04
         2        64       135  -4.3084664E+04
         2        20       153  -2.0294086E+04
         2        11       177  -1.4012582E+04
         2        11       177  -2.3354304E+03
         2        58       128  -4.8319250E+04
         2        25       152  -1.9327699E+04
         2        40       126  -4.3487324E+04
         2        57       144  -2.9152613E+04
         2        18       191  -1.0549703E+04
         2        11       177  -2.3354305E+04
         2        23       176  -2.3354305E+04
         2        43       115  -1.3207262E+04
         2        45       118  -1.3207262E+04
         2        45       118  -1.3207262E+04
         2        46       116  -3.2937621E+04
         2        43       115  -1.3207262E+04
         2        43       125  -3.9541254E+04
         2        40       126  -7.9726763E+03
         2        33       144  -3.2857090E+04
         2        32       143  -3.2212834E+04
         2        58       109  -3.8816465E+04
         4        91       158  -3.6996001E+03
         4        93       157  -2.2675000E+03
         4        99       189  -1.1576000E+04
         4        87       154  -3.5803000E+03
         3       117       178  -1.1934000E+02
         2        84       146  -1.6589000E+04
         2        84       145  -5.2013000E+04
         4        84       145  -2.9139000E+04
         2        85       144  -4.7737002E+03
         4        82       107  -2.3749000E+04
        25         0 # stress period 26
         3        68       156  -7.7226547E+01
         2        62       137  -3.5292531E+04
         2        64       140  -2.4017455E+04
         2        66       137  -1.7762105E+04
         2        64       135  -4.1316199E+04
         2        20       153  -1.9461090E+04
         2        11       177  -1.3437419E+04
         2        11       177  -2.2395698E+03
         2        58       128  -4.6335926E+04
         2        25       152  -1.8534371E+04
         2        40       126  -4.1702332E+04
         2        57       144  -2.7956010E+04
         2        18       191  -1.0116678E+04
         2        11       177  -2.2395697E+04
         2        23       176  -2.2395697E+04
         2        43       115  -1.2665153E+04
         2        45       118  -1.2665153E+04
         2        45       118  -1.2665153E+04
         2        46       116  -3.1585656E+04
         2        43       115  -1.2665153E+04
         2        43       125  -3.7918234E+04
         2        40       126  -7.6454277E+03
         2        33       144  -3.1508430E+04
         2        32       143  -3.0890617E+04
         2        58       109  -3.7223195E+04
        25         0 # stress period 27
         3        68       156  -8.3067467E+01
         2        62       137  -3.7961832E+04
         2        64       140  -2.5833982E+04
         2        66       137  -1.9105518E+04
         2        64       135  -4.4441094E+04
         2        20       153  -2.0933002E+04
         2        11       177  -1.4453739E+04
         2        11       177  -2.4089565E+03
         2        58       128  -4.9840480E+04
         2        25       152  -1.9936191E+04
         2        40       126  -4.4856430E+04
         2        57       144  -3.0070422E+04
         2        18       191  -1.0881838E+04
         2        11       177  -2.4089564E+04
         2        23       176  -2.4089564E+04
         2        43       115  -1.3623064E+04
         2        45       118  -1.3623064E+04
         2        45       118  -1.3623064E+04
         2        46       116  -3.3974594E+04
         2        43       115  -1.3623064E+04
         2        43       125  -4.0786125E+04
         2        40       126  -8.2236787E+03
         2        33       144  -3.3891527E+04
         2        32       143  -3.3226984E+04
         2        58       109  -4.0038520E+04
        35         0 # stress period 28
         3        68       156  -1.1811421E+02
         2        62       137  -5.3978195E+04
         2        64       140  -3.6733520E+04
         2        66       137  -2.7166270E+04
         2        64       135  -6.3191105E+04
         2        20       153  -2.9764783E+04
         2        11       177  -2.0551873E+04
         2        11       177  -3.4253123E+03
         2        58       128  -7.0868531E+04
         2        25       152  -2.8347412E+04
         2        40       126  -6.3781676E+04
         2        57       144  -4.2757348E+04
         2        18       191  -1.5472962E+04
         2        11       177  -3.4253121E+04
         2        23       176  -3.4253121E+04
         2        43       115  -1.9370730E+04
         2        45       118  -1.9370730E+04
         2        45       118  -1.9370730E+04
         2        46       116  -4.8308715E+04
         2        43       115  -1.9370730E+04
         2        43       125  -5.7994078E+04
         2        40       126  -1.1693308E+04
         2        33       144  -4.8190602E+04
         2        32       143  -4.7245688E+04
         2        58       109  -5.6931051E+04
         4        91       158  -3.6996001E+03
         4        93       157  -2.2675000E+03
         4        99       189  -1.1576000E+04
         4        87       154  -3.5803000E+03
         3       117       178  -1.1934000E+02
         2        84       146  -1.6589000E+04
         2        84       145  -5.2013000E+04
         4        84       145  -2.9139000E+04
         2        85       144  -4.7737002E+03
         4        82       107  -2.3749000E+04
        25         0 # stress period 29
         3        68       156  -1.3136981E+02
         2        62       137  -6.0036004E+04
         2        64       140  -4.0856012E+04
         2        66       137  -3.0215057E+04
         2        64       135  -7.0282852E+04
         2        20       153  -3.3105191E+04
         2        11       177  -2.2858348E+04
         2        11       177  -3.8097246E+03
         2        58       128  -7.8821891E+04
         2        25       152  -3.1528756E+04
         2        40       126  -7.0939695E+04
         2        57       144  -4.7555871E+04
         2        18       191  -1.7209445E+04
         2        11       177  -3.8097246E+04
         2        23       176  -3.8097246E+04
         2        43       115  -2.1544648E+04
         2        45       118  -2.1544648E+04
         2        45       118  -2.1544648E+04
         2        46       116  -5.3730254E+04
         2        43       115  -2.1544648E+04
         2        43       125  -6.4502578E+04
         2        40       126  -1.3005611E+04
         2        33       144  -5.3598883E+04
         2        32       143  -5.2547926E+04
         2        58       109  -6.3320250E+04
        25         0 # stress period 30
         3        68       156  -1.6409479E+02
         2        62       137  -7.4991320E+04
         2        64       140  -5.1033477E+04
         2        66       137  -3.7741801E+04
         2        64       135  -8.7790711E+04
         2        20       153  -4.1351887E+04
         2        11       177  -2.8552492E+04
         2        11       177  -4.7587490E+03
         2        58       128  -9.8456875E+04
         2        25       152  -3.9382750E+04
         2        40       126  -8.8611188E+04
         2        57       144  -5.9402312E+04
         2        18       191  -2.1496416E+04
         2        11       177  -4.7587488E+04
         2        23       176  -4.7587488E+04
         2        43       115  -2.6911545E+04
         2        45       118  -2.6911545E+04
         2        45       118  -2.6911545E+04
         2        46       116  -6.7114766E+04
         2        43       115  -2.6911545E+04
         2        43       125  -8.0570539E+04
         2        40       126  -1.6245384E+04
         2        33       144  -6.6950672E+04
         2        32       143  -6.5637914E+04
         2        58       109  -7.9093688E+04
        35         0 # stress period 31
         3        68       156  -1.6629695E+02
         2        62       137  -7.5997703E+04
         2        64       140  -5.1718352E+04
         2        66       137  -3.8248297E+04
         2        64       135  -8.8968867E+04
         2        20       153  -4.1906832E+04
         2        11       177  -2.8935668E+04
         2        11       177  -4.8226113E+03
         2        58       128  -9.9778172E+04
         2        25       152  -3.9911266E+04
         2        40       126  -8.9800352E+04
         2        57       144  -6.0199496E+04
         2        18       191  -2.1784900E+04
         2        11       177  -4.8226113E+04
         2        23       176  -4.8226113E+04
         2        43       115  -2.7272699E+04
         2        45       118  -2.7272699E+04
         2        45       118  -2.7272699E+04
         2        46       116  -6.8015453E+04
         2        43       115  -2.7272699E+04