# OC package for  MODFLOW-NWT, generated by Flopy.
HEAD PRINT FORMAT   0
HEAD SAVE UNIT    51
DRAWDOWN PRINT FORMAT   0
COMPACT BUDGET AUX

period 1 step 31 
  SAVE HEAD
  PRINT BUDGET
  SAVE BUDGET

period 2 step 28 
  SAVE HEAD
  PRINT BUDGET
  SAVE BUDGET

period 3 step 31 
  SAVE HEAD
  PRINT BUDGET
  SAVE BUDGET

period 4 step 30 
  SAVE HEAD
  PRINT BUDGET
  SAVE BUDGET

period 5 step 31 
  SAVE HEAD
  PRINT BUDGET
  SAVE BUDGET

period 6 step 30 
  SAVE HEAD
  PRINT BUDGET
  SAVE BUDGET

period 7 step 31 
  SAVE HEAD
  PRINT BUDGET
  SAVE BUDGET

period 8 step 31 
  SAVE HEAD
  PRINT BUDGET
  SAVE BUDGET

period 9 step 30 
  SAVE HEAD
  PRINT BUDGET
  SAVE BUDGET

period 10 step 31 
  SAVE HEAD
  PRINT BUDGET
  SAVE BUDGET

period 11 step 30 
  SAVE HEAD
  PRINT BUDGET
  SAVE BUDGET

period 12 step 31 
  SAVE HEAD
  PRINT BUDGET
  SAVE BUDGET

period 13 step 31 
  SAVE HEAD
  PRINT BUDGET
  SAVE BUDGET

period 14 step 29 
  SAVE HEAD
  PRINT BUDGET
  SAVE BUDGET

period 15 step 31 
  SAVE HEAD
  PRINT BUDGET
  SAVE BUDGET

period 16 step 30 
  SAVE HEAD
  PRINT BUDGET
  SAVE BUDGET

period 17 step 31 
  SAVE HEAD
  PRINT BUDGET
  SAVE BUDGET

period 18 step 30 
  SAVE HEAD
  PRINT BUDGET
  SAVE BUDGET

period 19 step 31 
  SAVE HEAD
  PRINT BUDGET
  SAVE BUDGET

period 20 step 31 
  SAVE HEAD
  PRINT BUDGET
  SAVE BUDGET

period 21 step 30 
  SAVE HEAD
  PRINT BUDGET
  SAVE BUDGET

period 22 step 31 
  SAVE HEAD
  PRINT BUDGET
  SAVE BUDGET

period 23 step 30 
  SAVE HEAD
  PRINT BUDGET
  SAVE BUDGET

period 24 step 31 
  SAVE HEAD
  PRINT BUDGET
  SAVE BUDGET

period 25 step 31 
  SAVE HEAD
  PRINT BUDGET
  SAVE BUDGET

period 26 step 28 
  SAVE HEAD
  PRINT BUDGET
  SAVE BUDGET

period 27 step 31 
  SAVE HEAD
  PRINT BUDGET
  SAVE BUDGET

period 28 step 30 
  SAVE HEAD
  PRINT BUDGET
  SAVE BUDGET

period 29 step 31 
  SAVE HEAD
  PRINT BUDGET
  SAVE BUDGET

period 30 step 30 
  SAVE HEAD
  PRINT BUDGET
  SAVE BUDGET

period 31 step 31 
  SAVE HEAD
  PRINT BUDGET
  SAVE BUDGET

period 32 step 31 
  SAVE HEAD
  PRINT BUDGET
  SAVE BUDGET

period 33 step 30 
  SAVE HEAD
  PRINT BUDGET
  SAVE BUDGET

period 34 step 31 
  SAVE HEAD
  PRINT BUDGET
  SAVE BUDGET

period 35 step 30 
  SAVE HEAD
  PRINT BUDGET
  SAVE BUDGET

period 36 step 31 
  SAVE HEAD
  PRINT BUDGET
  SAVE BUDGET

period 37 step 31 
  SAVE HEAD
  PRINT BUDGET
  SAVE BUDGET

period 38 step 28 
  SAVE HEAD
  PRINT BUDGET
  SAVE BUDGET

period 39 step 31 
  SAVE HEAD
  PRINT BUDGET
  SAVE BUDGET

period 40 step 30 
  SAVE HEAD
  PRINT BUDGET
  SAVE BUDGET

period 41 step 31 
  SAVE HEAD
  PRINT BUDGET
  SAVE BUDGET

period 42 step 30 
  SAVE HEAD
  PRINT BUDGET
  SAVE BUDGET

period 43 step 31 
  SAVE HEAD
  PRINT BUDGET
  SAVE BUDGET

period 44 step 31 
  SAVE HEAD
  PRINT BUDGET
  SAVE BUDGET

period 45 step 30 
  SAVE HEAD
  PRINT BUDGET
  SAVE BUDGET

period 46 step 31 
  SAVE HEAD
  PRINT BUDGET
  SAVE BUDGET

period 47 step 30 
  SAVE HEAD
  PRINT BUDGET
  SAVE BUDGET

period 48 step 31 
  SAVE HEAD
  PRINT BUDGET
  SAVE BUDGET

period 49 step 31 
  SAVE HEAD
  PRINT BUDGET
  SAVE BUDGET

period 50 step 28 
  SAVE HEAD
  PRINT BUDGET
  SAVE BUDGET

period 51 step 31 
  SAVE HEAD
  PRINT BUDGET
  SAVE BUDGET

period 52 step 30 
  SAVE HEAD
  PRINT BUDGET
  SAVE BUDGET

period 53 step 31 
  SAVE HEAD
  PRINT BUDGET
  SAVE BUDGET

period 54 step 30 
  SAVE HEAD
  PRINT BUDGET
  SAVE BUDGET

period 55 step 31 
  SAVE HEAD
  PRINT BUDGET
  SAVE BUDGET

period 56 step 31 
  SAVE HEAD
  PRINT BUDGET
  SAVE BUDGET

period 57 step 30 
  SAVE HEAD
  PRINT BUDGET
  SAVE BUDGET

period 58 step 31 
  SAVE HEAD
  PRINT BUDGET
  SAVE BUDGET

period 59 step 30 
  SAVE HEAD
  PRINT BUDGET
  SAVE BUDGET

period 60 step 31 
  SAVE HEAD
  PRINT BUDGET
  SAVE BUDGET

period 61 step 31 
  SAVE HEAD
  PRINT BUDGET
  SAVE BUDGET

period 62 step 29 
  SAVE HEAD
  PRINT BUDGET
  SAVE BUDGET

period 63 step 31 
  SAVE HEAD
  PRINT BUDGET
  SAVE BUDGET

period 64 step 30 
  SAVE HEAD
  PRINT BUDGET
  SAVE BUDGET

period 65 step 31 
  SAVE HEAD
  PRINT BUDGET
  SAVE BUDGET

period 66 step 30 
  SAVE HEAD
  PRINT BUDGET
  SAVE BUDGET

period 67 step 31 
  SAVE HEAD
  PRINT BUDGET
  SAVE BUDGET

period 68 step 31 
  SAVE HEAD
  PRINT BUDGET
  SAVE BUDGET

period 69 step 30 
  SAVE HEAD
  PRINT BUDGET
  SAVE BUDGET

period 70 step 31 
  SAVE HEAD
  PRINT BUDGET
  SAVE BUDGET

period 71 step 30 
  SAVE HEAD
  PRINT BUDGET
  SAVE BUDGET

period 72 step 31 
  SAVE HEAD
  PRINT BUDGET
  SAVE BUDGET

period 73 step 31 
  SAVE HEAD
  PRINT BUDGET
  SAVE BUDGET

period 74 step 28 
  SAVE HEAD
  PRINT BUDGET
  SAVE BUDGET

period 75 step 31 
  SAVE HEAD
  PRINT BUDGET
  SAVE BUDGET

period 76 step 30 
  SAVE HEAD
  PRINT BUDGET
  SAVE BUDGET

period 77 step 31 
  SAVE HEAD
  PRINT BUDGET
  SAVE BUDGET

period 78 step 30 
  SAVE HEAD
  PRINT BUDGET
  SAVE BUDGET

period 79 step 31 
  SAVE HEAD
  PRINT BUDGET
  SAVE BUDGET

period 80 step 31 
  SAVE HEAD
  PRINT BUDGET
  SAVE BUDGET

period 81 step 30 
  SAVE HEAD
  PRINT BUDGET
  SAVE BUDGET

period 82 step 31 
  SAVE HEAD
  PRINT BUDGET
  SAVE BUDGET

period 83 step 30 
  SAVE HEAD
  PRINT BUDGET
  SAVE BUDGET

period 84 step 31 
  SAVE HEAD
  PRINT BUDGET
  SAVE BUDGET

period 85 step 31 
  SAVE HEAD
  PRINT BUDGET
  SAVE BUDGET

period 86 step 28 
  SAVE HEAD
  PRINT BUDGET
  SAVE BUDGET

period 87 step 31 
  SAVE HEAD
  PRINT BUDGET
  SAVE BUDGET

period 88 step 30 
  SAVE HEAD
  PRINT BUDGET
  SAVE BUDGET

period 89 step 31 
  SAVE HEAD
  PRINT BUDGET
  SAVE BUDGET

period 90 step 30 
  SAVE HEAD
  PRINT BUDGET
  SAVE BUDGET

period 91 step 31 
  SAVE HEAD
  PRINT BUDGET
  SAVE BUDGET

period 92 step 31 
  SAVE HEAD
  PRINT BUDGET
  SAVE BUDGET

period 93 step 30 
  SAVE HEAD
  PRINT BUDGET
  SAVE BUDGET

period 94 step 31 
  SAVE HEAD
  PRINT BUDGET
  SAVE BUDGET

period 95 step 30 
  SAVE HEAD
  PRINT BUDGET
  SAVE BUDGET

period 96 step 31 
  SAVE HEAD
  PRINT BUDGET
  SAVE BUDGET

period 97 step 31 
  SAVE HEAD
  PRINT BUDGET
  SAVE BUDGET

period 98 step 28 
  SAVE HEAD
  PRINT BUDGET
  SAVE BUDGET

period 99 step 31 
  SAVE HEAD
  PRINT BUDGET
  SAVE BUDGET

period 100 step 30 
  SAVE HEAD
  PRINT BUDGET
  SAVE BUDGET

period 101 step 31 
  SAVE HEAD
  PRINT BUDGET
  SAVE BUDGET

period 102 step 30 
  SAVE HEAD
  PRINT BUDGET
  SAVE BUDGET

period 103 step 31 
  SAVE HEAD
  PRINT BUDGET
  SAVE BUDGET

period 104 step 31 
  SAVE HEAD
  PRINT BUDGET
  SAVE BUDGET

period 105 step 30 
  SAVE HEAD
  PRINT BUDGET
  SAVE BUDGET

period 106 step 31 
  SAVE HEAD
  PRINT BUDGET
  SAVE BUDGET

period 107 step 30 
  SAVE HEAD
  PRINT BUDGET
  SAVE BUDGET

period 108 step 31 
  SAVE HEAD
  PRINT BUDGET
  SAVE BUDGET

period 109 step 31 
  SAVE HEAD
  PRINT BUDGET
  SAVE BUDGET

period 110 step 29 
  SAVE HEAD
  PRINT BUDGET
  SAVE BUDGET

period 111 step 31 
  SAVE HEAD
  PRINT BUDGET
  SAVE BUDGET

period 112 step 30 
  SAVE HEAD
  PRINT BUDGET
  SAVE BUDGET

period 113 step 31 
  SAVE HEAD
  PRINT BUDGET
  SAVE BUDGET

period 114 step 30 
  SAVE HEAD
  PRINT BUDGET
  SAVE BUDGET

period 115 step 31 
  SAVE HEAD
  PRINT BUDGET
  SAVE BUDGET

period 116 step 31 
  SAVE HEAD
  PRINT BUDGET
  SAVE BUDGET

period 117 step 30 
  SAVE HEAD
  PRINT BUDGET
  SAVE BUDGET

period 118 step 31 
  SAVE HEAD
  PRINT BUDGET
  SAVE BUDGET

period 119 step 30 
  SAVE HEAD
  PRINT BUDGET
  SAVE BUDGET

period 120 step 31 
  SAVE HEAD
  PRINT BUDGET
  SAVE BUDGET

period 121 step 31 
  SAVE HEAD
  PRINT BUDGET
  SAVE BUDGET

period 122 step 28 
  SAVE HEAD
  PRINT BUDGET
  SAVE BUDGET

period 123 step 31 
  SAVE HEAD
  PRINT BUDGET
  SAVE BUDGET

period 124 step 30 
  SAVE HEAD
  PRINT BUDGET
  SAVE BUDGET

period 125 step 31 
  SAVE HEAD
  PRINT BUDGET
  SAVE BUDGET

period 126 step 30 
  SAVE HEAD
  PRINT BUDGET
  SAVE BUDGET

period 127 step 31 
  SAVE HEAD
  PRINT BUDGET
  SAVE BUDGET

period 128 step 31 
  SAVE HEAD
  PRINT BUDGET
  SAVE BUDGET

period 129 step 30 
  SAVE HEAD
  PRINT BUDGET
  SAVE BUDGET

period 130 step 31 
  SAVE HEAD
  PRINT BUDGET
  SAVE BUDGET

period 131 step 30 
  SAVE HEAD
  PRINT BUDGET
  SAVE BUDGET

period 132 step 31 
  SAVE HEAD
  PRINT BUDGET
  SAVE BUDGET

period 133 step 31 
  SAVE HEAD
  PRINT BUDGET
  SAVE BUDGET

period 134 step 28 
  SAVE HEAD
  PRINT BUDGET
  SAVE BUDGET

period 135 step 31 
  SAVE HEAD
  PRINT BUDGET
  SAVE BUDGET

period 136 step 30 
  SAVE HEAD
  PRINT BUDGET
  SAVE BUDGET

period 137 step 31 
  SAVE HEAD
  PRINT BUDGET
  SAVE BUDGET

period 138 step 30 
  SAVE HEAD
  PRINT BUDGET
  SAVE BUDGET

period 139 step 31 
  SAVE HEAD
  PRINT BUDGET
  SAVE BUDGET

period 140 step 31 
  SAVE HEAD
  PRINT BUDGET
  SAVE BUDGET

period 141 step 30 
  SAVE HEAD
  PRINT BUDGET
  SAVE BUDGET

period 142 step 31 
  SAVE HEAD
  PRINT BUDGET
  SAVE BUDGET

period 143 step 30 
  SAVE HEAD
  PRINT BUDGET
  SAVE BUDGET

period 144 step 31 
  SAVE HEAD
  PRINT BUDGET
  SAVE BUDGET

period 145 step 31 
  SAVE HEAD
  PRINT BUDGET
  SAVE BUDGET

period 146 step 28 
  SAVE HEAD
  PRINT BUDGET
  SAVE BUDGET

period 147 step 31 
  SAVE HEAD
  PRINT BUDGET
  SAVE BUDGET

period 148 step 30 
  SAVE HEAD
  PRINT BUDGET
  SAVE BUDGET

period 149 step 31 
  SAVE HEAD
  PRINT BUDGET
  SAVE BUDGET

period 150 step 30 
  SAVE HEAD
  PRINT BUDGET
  SAVE BUDGET

period 151 step 31 
  SAVE HEAD
  PRINT BUDGET
  SAVE BUDGET

period 152 step 31 
  SAVE HEAD
  PRINT BUDGET
  SAVE BUDGET

period 153 step 30 
  SAVE HEAD
  PRINT BUDGET
  SAVE BUDGET

period 154 step 31 
  SAVE HEAD
  PRINT BUDGET
  SAVE BUDGET

period 155 step 30 
  SAVE HEAD
  PRINT BUDGET
  SAVE BUDGET

period 156 step 31 
  SAVE HEAD
  PRINT BUDGET
  SAVE BUDGET

period 157 step 31 
  SAVE HEAD
  PRINT BUDGET
  SAVE BUDGET

period 158 step 29 
  SAVE HEAD
  PRINT BUDGET
  SAVE BUDGET

period 159 step 31 
  SAVE HEAD
  PRINT BUDGET
  SAVE BUDGET

period 160 step 30 
  SAVE HEAD
  PRINT BUDGET
  SAVE BUDGET

period 161 step 31 
  SAVE HEAD
  PRINT BUDGET
  SAVE BUDGET

period 162 step 30 
  SAVE HEAD
  PRINT BUDGET
  SAVE BUDGET

period 163 step 31 
  SAVE HEAD
  PRINT BUDGET
  SAVE BUDGET

period 164 step 31 
  SAVE HEAD
  PRINT BUDGET
  SAVE BUDGET

period 165 step 30 
  SAVE HEAD
  PRINT BUDGET
  SAVE BUDGET

period 166 step 31 
  SAVE HEAD
  PRINT BUDGET
  SAVE BUDGET

period 167 step 30 
  SAVE HEAD
  PRINT BUDGET
  SAVE BUDGET

period 168 step 31 
  SAVE HEAD
  PRINT BUDGET
  SAVE BUDGET

period 169 step 31 
  SAVE HEAD
  PRINT BUDGET
  SAVE BUDGET

period 170 step 28 
  SAVE HEAD
  PRINT BUDGET
  SAVE BUDGET

period 171 step 31 
  SAVE HEAD
  PRINT BUDGET
  SAVE BUDGET

period 172 step 30 
  SAVE HEAD
  PRINT BUDGET
  SAVE BUDGET

period 173 step 31 
  SAVE HEAD
  PRINT BUDGET
  SAVE BUDGET

period 174 step 30 
  SAVE HEAD
  PRINT BUDGET
  SAVE BUDGET

period 175 step 31 
  SAVE HEAD
  PRINT BUDGET
  SAVE BUDGET

period 176 step 31 
  SAVE HEAD
  PRINT BUDGET
  SAVE BUDGET

period 177 step 30 
  SAVE HEAD
  PRINT BUDGET
  SAVE BUDGET

period 178 step 31 
  SAVE HEAD
  PRINT BUDGET
  SAVE BUDGET

period 179 step 30 
  SAVE HEAD
  PRINT BUDGET
  SAVE BUDGET

period 180 step 31 
  SAVE HEAD
  PRINT BUDGET
  SAVE BUDGET

period 181 step 31 
  SAVE HEAD
  PRINT BUDGET
  SAVE BUDGET

period 182 step 28 
  SAVE HEAD
  PRINT BUDGET
  SAVE BUDGET

period 183 step 31 
  SAVE HEAD
  PRINT BUDGET
  SAVE BUDGET

period 184 step 30 
  SAVE HEAD
  PRINT BUDGET
  SAVE BUDGET

period 185 step 31 
  SAVE HEAD
  PRINT BUDGET
  SAVE BUDGET

period 186 step 30 
  SAVE HEAD
  PRINT BUDGET
  SAVE BUDGET

period 187 step 31 
  SAVE HEAD
  PRINT BUDGET
  SAVE BUDGET

period 188 step 31 
  SAVE HEAD
  PRINT BUDGET
  SAVE BUDGET

period 189 step 30 
  SAVE HEAD
  PRINT BUDGET
  SAVE BUDGET

period 190 step 31 
  SAVE HEAD
  PRINT BUDGET
  SAVE BUDGET

period 191 step 30 
  SAVE HEAD
  PRINT BUDGET
  SAVE BUDGET

period 192 step 31 
  SAVE HEAD
  PRINT BUDGET
  SAVE BUDGET

period 193 step 31 
  SAVE HEAD
  PRINT BUDGET
  SAVE BUDGET

period 194 step 28 
  SAVE HEAD
  PRINT BUDGET
  SAVE BUDGET

period 195 step 31 
  SAVE HEAD
  PRINT BUDGET
  SAVE BUDGET

period 196 step 30 
  SAVE HEAD
  PRINT BUDGET
  SAVE BUDGET

period 197 step 31 
  SAVE HEAD
  PRINT BUDGET
  SAVE BUDGET

period 198 step 30 
  SAVE HEAD
  PRINT BUDGET
  SAVE BUDGET

period 199 step 31 
  SAVE HEAD
  PRINT BUDGET
  SAVE BUDGET

period 200 step 31 
  SAVE HEAD
  PRINT BUDGET
  SAVE BUDGET

period 201 step 30 
  SAVE HEAD
  PRINT BUDGET
  SAVE BUDGET

period 202 step 31 
  SAVE HEAD
  PRINT BUDGET
  SAVE BUDGET

period 203 step 30 
  SAVE HEAD
  PRINT BUDGET
  SAVE BUDGET

period 204 step 31 
  SAVE HEAD
  PRINT BUDGET
  SAVE BUDGET

period 205 step 31 
  SAVE HEAD
  PRINT BUDGET
  SAVE BUDGET

period 206 step 29 
  SAVE HEAD
  PRINT BUDGET
  SAVE BUDGET

period 207 step 31 
  SAVE HEAD
  PRINT BUDGET
  SAVE BUDGET

period 208 step 30 
  SAVE HEAD
  PRINT BUDGET
  SAVE BUDGET

period 209 step 31 
  SAVE HEAD
  PRINT BUDGET
  SAVE BUDGET

period 210 step 30 
  SAVE HEAD
  PRINT BUDGET
  SAVE BUDGET

period 211 step 31 
  SAVE HEAD
  PRINT BUDGET
  SAVE BUDGET

period 212 step 31 
  SAVE HEAD
  PRINT BUDGET
  SAVE BUDGET

period 213 step 30 
  SAVE HEAD
  PRINT BUDGET
  SAVE BUDGET

period 214 step 31 
  SAVE HEAD
  PRINT BUDGET
  SAVE BUDGET

period 215 step 30 
  SAVE HEAD
  PRINT BUDGET
  SAVE BUDGET

period 216 step 31 
  SAVE HEAD
  PRINT BUDGET
  SAVE BUDGET

period 217 step 31 
  SAVE HEAD
  PRINT BUDGET
  SAVE BUDGET

period 218 step 28 
  SAVE HEAD
  PRINT BUDGET
  SAVE BUDGET

period 219 step 31 
  SAVE HEAD
  PRINT BUDGET
  SAVE BUDGET

period 220 step 30 
  SAVE HEAD
  PRINT BUDGET
  SAVE BUDGET

period 221 step 31 
  SAVE HEAD
  PRINT BUDGET
  SAVE BUDGET

period 222 step 30 
  SAVE HEAD
  PRINT BUDGET
  SAVE BUDGET

period 223 step 31 
  SAVE HEAD
  PRINT BUDGET
  SAVE BUDGET

period 224 step 31 
  SAVE HEAD
  PRINT BUDGET
  SAVE BUDGET

period 225 step 30 
  SAVE HEAD
  PRINT BUDGET
  SAVE BUDGET

period 226 step 31 
  SAVE HEAD
  PRINT BUDGET
  SAVE BUDGET

period 227 step 30 
  SAVE HEAD
  PRINT BUDGET
  SAVE BUDGET

period 228 step 31 
  SAVE HEAD
  PRINT BUDGET
  SAVE BUDGET

period 229 step 31 
  SAVE HEAD
  PRINT BUDGET
  SAVE BUDGET

period 230 step 28 
  SAVE HEAD
  PRINT BUDGET
  SAVE BUDGET

period 231 step 31 
  SAVE HEAD
  PRINT BUDGET
  SAVE BUDGET

period 232 step 30 
  SAVE HEAD
  PRINT BUDGET
  SAVE BUDGET

period 233 step 31 
  SAVE HEAD
  PRINT BUDGET
  SAVE BUDGET

period 234 step 30 
  SAVE HEAD
  PRINT BUDGET
  SAVE BUDGET

period 235 step 31 
  SAVE HEAD
  PRINT BUDGET
  SAVE BUDGET

period 236 step 31 
  SAVE HEAD
  PRINT BUDGET
  SAVE BUDGET

period 237 step 30 
  SAVE HEAD
  PRINT BUDGET
  SAVE BUDGET

period 238 step 31 
  SAVE HEAD
  PRINT BUDGET
  SAVE BUDGET

period 239 step 30 
  SAVE HEAD
  PRINT BUDGET
  SAVE BUDGET

period 240 step 31 
  SAVE HEAD
  PRINT BUDGET
  SAVE BUDGET

period 241 step 31 
  SAVE HEAD
  PRINT BUDGET
  SAVE BUDGET

period 242 step 28 
  SAVE HEAD
  PRINT BUDGET
  SAVE BUDGET

period 243 step 31 
  SAVE HEAD
  PRINT BUDGET
  SAVE BUDGET

period 244 step 30 
  SAVE HEAD
  PRINT BUDGET
  SAVE BUDGET

period 245 step 31 
  SAVE HEAD
  PRINT BUDGET
  SAVE BUDGET

period 246 step 30 
  SAVE HEAD
  PRINT BUDGET
  SAVE BUDGET

period 247 step 31 
  SAVE HEAD
  PRINT BUDGET
  SAVE BUDGET

period 248 step 31 
  SAVE HEAD
  PRINT BUDGET
  SAVE BUDGET

period 249 step 30 
  SAVE HEAD
  PRINT BUDGET
  SAVE BUDGET

period 250 step 31 
  SAVE HEAD
  PRINT BUDGET
  SAVE BUDGET

period 251 step 30 
  SAVE HEAD
  PRINT BUDGET
  SAVE BUDGET

period 252 step 31 
  SAVE HEAD
  PRINT BUDGET
  SAVE BUDGET

period 253 step 31 
  SAVE HEAD
  PRINT BUDGET
  SAVE BUDGET

period 254 step 29 
  SAVE HEAD
  PRINT BUDGET
  SAVE BUDGET

period 255 step 31 
  SAVE HEAD
  PRINT BUDGET
  SAVE BUDGET

period 256 step 30 
  SAVE HEAD
  PRINT BUDGET
  SAVE BUDGET

period 257 step 31 
  SAVE HEAD
  PRINT BUDGET
  SAVE BUDGET

period 258 step 30 
  SAVE HEAD
  PRINT BUDGET
  SAVE BUDGET

period 259 step 31 
  SAVE HEAD
  PRINT BUDGET
  SAVE BUDGET

period 260 step 31 
  SAVE HEAD
  PRINT BUDGET
  SAVE BUDGET

period 261 step 30 
  SAVE HEAD
  PRINT BUDGET
  SAVE BUDGET

period 262 step 31 
  SAVE HEAD
  PRINT BUDGET
  SAVE BUDGET

period 263 step 30 
  SAVE HEAD
  PRINT BUDGET
  SAVE BUDGET

period 264 step 31 
  SAVE HEAD
  PRINT BUDGET
  SAVE BUDGET

period 265 step 31 
  SAVE HEAD
  PRINT BUDGET
  SAVE BUDGET

period 266 step 28 
  SAVE HEAD
  PRINT BUDGET
  SAVE BUDGET

period 267 step 31 
  SAVE HEAD
  PRINT BUDGET
  SAVE BUDGET

period 268 step 30 
  SAVE HEAD
  PRINT BUDGET
  SAVE BUDGET

period 269 step 31 
  SAVE HEAD
  PRINT BUDGET
  SAVE BUDGET

period 270 step 30 
  SAVE HEAD
  PRINT BUDGET
  SAVE BUDGET

period 271 step 31 
  SAVE HEAD
  PRINT BUDGET
  SAVE BUDGET

period 272 step 31 
  SAVE HEAD
  PRINT BUDGET
  SAVE BUDGET

period 273 step 30 
  SAVE HEAD
  PRINT BUDGET
  SAVE BUDGET

period 274 step 31 
  SAVE HEAD
  PRINT BUDGET
  SAVE BUDGET

period 275 step 30 
  SAVE HEAD
  PRINT BUDGET
  SAVE BUDGET

period 276 step 31 
  SAVE HEAD
  PRINT BUDGET
  SAVE BUDGET

period 277 step 31 
  SAVE HEAD
  PRINT BUDGET
  SAVE BUDGET

period 278 step 28 
  SAVE HEAD
  PRINT BUDGET
  SAVE BUDGET

period 279 step 31 
  SAVE HEAD
  PRINT BUDGET
  SAVE BUDGET

period 280 step 30 
  SAVE HEAD
  PRINT BUDGET
  SAVE BUDGET

period 281 step 31 
  SAVE HEAD
  PRINT BUDGET
  SAVE BUDGET

period 282 step 30 
  SAVE HEAD
  PRINT BUDGET
  SAVE BUDGET

period 283 step 31 
  SAVE HEAD
  PRINT BUDGET
  SAVE BUDGET

period 284 step 31 
  SAVE HEAD
  PRINT BUDGET
  SAVE BUDGET

period 285 step 30 
  SAVE HEAD
  PRINT BUDGET
  SAVE BUDGET

period 286 step 31 
  SAVE HEAD
  PRINT BUDGET
  SAVE BUDGET

period 287 step 30 
  SAVE HEAD
  PRINT BUDGET
  SAVE BUDGET

period 288 step 31 
  SAVE HEAD
  PRINT BUDGET
  SAVE BUDGET

period 289 step 31 
  SAVE HEAD
  PRINT BUDGET
  SAVE BUDGET

period 290 step 28 
  SAVE HEAD
  PRINT BUDGET
  SAVE BUDGET

period 291 step 31 
  SAVE HEAD
  PRINT BUDGET
  SAVE BUDGET

period 292 step 30 
  SAVE HEAD
  PRINT BUDGET
  SAVE BUDGET

period 293 step 31 
  SAVE HEAD
  PRINT BUDGET
  SAVE BUDGET

period 294 step 30 
  SAVE HEAD
  PRINT BUDGET
  SAVE BUDGET

period 295 step 31 
  SAVE HEAD
  PRINT BUDGET
  SAVE BUDGET

period 296 step 31 
  SAVE HEAD
  PRINT BUDGET
  SAVE BUDGET

period 297 step 30 
  SAVE HEAD
  PRINT BUDGET
  SAVE BUDGET

period 298 step 31 
  SAVE HEAD
  PRINT BUDGET
  SAVE BUDGET

period 299 step 30 
  SAVE HEAD
  PRINT BUDGET
  SAVE BUDGET

period 300 step 31 
  SAVE HEAD
  PRINT BUDGET
  SAVE BUDGET

period 301 step 31 
  SAVE HEAD
  PRINT BUDGET
  SAVE BUDGET

period 302 step 29 
  SAVE HEAD
  PRINT BUDGET
  SAVE BUDGET

period 303 step 31 
  SAVE HEAD
  PRINT BUDGET
  SAVE BUDGET

period 304 step 30 
  SAVE HEAD
  PRINT BUDGET
  SAVE BUDGET

period 305 step 31 
  SAVE HEAD
  PRINT BUDGET
  SAVE BUDGET

period 306 step 30 
  SAVE HEAD
  PRINT BUDGET
  SAVE BUDGET

period 307 step 31 
  SAVE HEAD
  PRINT BUDGET
  SAVE BUDGET

period 308 step 31 
  SAVE HEAD
  PRINT BUDGET
  SAVE BUDGET

period 309 step 30 
  SAVE HEAD
  PRINT BUDGET
  SAVE BUDGET

period 310 step 31 
  SAVE HEAD
  PRINT BUDGET
  SAVE BUDGET

period 311 step 30 
  SAVE HEAD
  PRINT BUDGET
  SAVE BUDGET

period 312 step 31 
  SAVE HEAD
  PRINT BUDGET
  SAVE BUDGET

period 313 step 31 
  SAVE HEAD
  PRINT BUDGET
  SAVE BUDGET

period 314 step 28 
  SAVE HEAD
  PRINT BUDGET
  SAVE BUDGET

period 315 step 31 
  SAVE HEAD
  PRINT BUDGET
  SAVE BUDGET

period 316 step 30 
  SAVE HEAD
  PRINT BUDGET
  SAVE BUDGET

period 317 step 31 
  SAVE HEAD
  PRINT BUDGET
  SAVE BUDGET

period 318 step 30 
  SAVE HEAD
  PRINT BUDGET
  SAVE BUDGET

period 319 step 31 
  SAVE HEAD
  PRINT BUDGET
  SAVE BUDGET

period 320 step 31 
  SAVE HEAD
  PRINT BUDGET
  SAVE BUDGET

period 321 step 30 
  SAVE HEAD
  PRINT BUDGET
  SAVE BUDGET

period 322 step 31 
  SAVE HEAD
  PRINT BUDGET
  SAVE BUDGET

period 323 step 30 
  SAVE HEAD
  PRINT BUDGET
  SAVE BUDGET

period 324 step 31 
  SAVE HEAD
  PRINT BUDGET
  SAVE BUDGET

period 325 step 31 
  SAVE HEAD
  PRINT BUDGET
  SAVE BUDGET

period 326 step 28 
  SAVE HEAD
  PRINT BUDGET
  SAVE BUDGET

period 327 step 31 
  SAVE HEAD
  PRINT BUDGET
  SAVE BUDGET

period 328 step 30 
  SAVE HEAD
  PRINT BUDGET
  SAVE BUDGET

period 329 step 31 
  SAVE HEAD
  PRINT BUDGET
  SAVE BUDGET

period 330 step 30 
  SAVE HEAD
  PRINT BUDGET
  SAVE BUDGET

period 331 step 31 
  SAVE HEAD
  PRINT BUDGET
  SAVE BUDGET

period 332 step 31 
  SAVE HEAD
  PRINT BUDGET
  SAVE BUDGET

period 333 step 30 
  SAVE HEAD
  PRINT BUDGET
  SAVE BUDGET

period 334 step 31 
  SAVE HEAD
  PRINT BUDGET
  SAVE BUDGET

period 335 step 30 
  SAVE HEAD
  PRINT BUDGET
  SAVE BUDGET

period 336 step 31 
  SAVE HEAD
  PRINT BUDGET
  SAVE BUDGET

period 337 step 31 
  SAVE HEAD
  PRINT BUDGET
  SAVE BUDGET

period 338 step 28 
  SAVE HEAD
  PRINT BUDGET
  SAVE BUDGET

period 339 step 31 
  SAVE HEAD
  PRINT BUDGET
  SAVE BUDGET

period 340 step 30 
  SAVE HEAD
  PRINT BUDGET
  SAVE BUDGET

period 341 step 31 
  SAVE HEAD
  PRINT BUDGET
  SAVE BUDGET

period 342 step 30 
  SAVE HEAD
  PRINT BUDGET
  SAVE BUDGET

period 343 step 31 
  SAVE HEAD
  PRINT BUDGET
  SAVE BUDGET

period 344 step 31 
  SAVE HEAD
  PRINT BUDGET
  SAVE BUDGET

period 345 step 30 
  SAVE HEAD
  PRINT BUDGET
  SAVE BUDGET

period 346 step 31 
  SAVE HEAD
  PRINT BUDGET
  SAVE BUDGET

period 347 step 30 
  SAVE HEAD
  PRINT BUDGET
  SAVE BUDGET

period 348 step 31 
  SAVE HEAD
  PRINT BUDGET
  SAVE BUDGET

period 349 step 31 
  SAVE HEAD
  PRINT BUDGET
  SAVE BUDGET

period 350 step 29 
  SAVE HEAD
  PRINT BUDGET
  SAVE BUDGET

period 351 step 31 
  SAVE HEAD
  PRINT BUDGET
  SAVE BUDGET

period 352 step 30 
  SAVE HEAD
  PRINT BUDGET
  SAVE BUDGET

period 353 step 31 
  SAVE HEAD
  PRINT BUDGET
  SAVE BUDGET

period 354 step 30 
  SAVE HEAD
  PRINT BUDGET
  SAVE BUDGET

period 355 step 31 
  SAVE HEAD
  PRINT BUDGET
  SAVE BUDGET

period 356 step 31 
  SAVE HEAD
  PRINT BUDGET
  SAVE BUDGET

period 357 step 30 
  SAVE HEAD
  PRINT BUDGET
  SAVE BUDGET

period 358 step 31 
  SAVE HEAD
  PRINT BUDGET
  SAVE BUDGET

period 359 step 30 
  SAVE HEAD
  PRINT BUDGET
  SAVE BUDGET

period 360 step 31 
  SAVE HEAD
  PRINT BUDGET
  SAVE BUDGET

period 361 step 31 
  SAVE HEAD
  PRINT BUDGET
  SAVE BUDGET

period 362 step 28 
  SAVE HEAD
  PRINT BUDGET
  SAVE BUDGET

period 363 step 31 
  SAVE HEAD
  PRINT BUDGET
  SAVE BUDGET

period 364 step 30 
  SAVE HEAD
  PRINT BUDGET
  SAVE BUDGET

period 365 step 31 
  SAVE HEAD
  PRINT BUDGET
  SAVE BUDGET

period 366 step 30 
  SAVE HEAD
  PRINT BUDGET
  SAVE BUDGET

period 367 step 31 
  SAVE HEAD
  PRINT BUDGET
  SAVE BUDGET

period 368 step 31 
  SAVE HEAD
  PRINT BUDGET
  SAVE BUDGET

period 369 step 30 
  SAVE HEAD
  PRINT BUDGET
  SAVE BUDGET

period 370 step 31 
  SAVE HEAD
  PRINT BUDGET
  SAVE BUDGET

period 371 step 30 
  SAVE HEAD
  PRINT BUDGET
  SAVE BUDGET

period 372 step 31 
  SAVE HEAD
  PRINT BUDGET
  SAVE BUDGET

period 373 step 31 
  SAVE HEAD
  PRINT BUDGET
  SAVE BUDGET

period 374 step 28 
  SAVE HEAD
  PRINT BUDGET
  SAVE BUDGET

period 375 step 31 
  SAVE HEAD
  PRINT BUDGET
  SAVE BUDGET

period 376 step 30 
  SAVE HEAD
  PRINT BUDGET
  SAVE BUDGET

period 377 step 31 
  SAVE HEAD
  PRINT BUDGET
  SAVE BUDGET

period 378 step 30 
  SAVE HEAD
  PRINT BUDGET
  SAVE BUDGET

period 379 step 31 
  SAVE HEAD
  PRINT BUDGET
  SAVE BUDGET

period 380 step 31 
  SAVE HEAD
  PRINT BUDGET
  SAVE BUDGET

period 381 step 30 
  SAVE HEAD
  PRINT BUDGET
  SAVE BUDGET

period 382 step 31 
  SAVE HEAD
  PRINT BUDGET
  SAVE BUDGET

period 383 step 30 
  SAVE HEAD
  PRINT BUDGET
  SAVE BUDGET

period 384 step 31 
  SAVE HEAD
  PRINT BUDGET
  SAVE BUDGET

period 385 step 31 
  SAVE HEAD
  PRINT BUDGET
  SAVE BUDGET

period 386 step 28 
  SAVE HEAD
  PRINT BUDGET
  SAVE BUDGET

period 387 step 31 
  SAVE HEAD
  PRINT BUDGET
  SAVE BUDGET

period 388 step 30 
  SAVE HEAD
  PRINT BUDGET
  SAVE BUDGET

period 389 step 31 
  SAVE HEAD
  PRINT BUDGET
  SAVE BUDGET

period 390 step 30 
  SAVE HEAD
  PRINT BUDGET
  SAVE BUDGET

period 391 step 31 
  SAVE HEAD
  PRINT BUDGET
  SAVE BUDGET

period 392 step 31 
  SAVE HEAD
  PRINT BUDGET
  SAVE BUDGET

period 393 step 30 
  SAVE HEAD
  PRINT BUDGET
  SAVE BUDGET

period 394 step 31 
  SAVE HEAD
  PRINT BUDGET
  SAVE BUDGET

period 395 step 30 
  SAVE HEAD
  PRINT BUDGET
  SAVE BUDGET

period 396 step 31 
  SAVE HEAD
  PRINT BUDGET
  SAVE BUDGET

period 397 step 31 
  SAVE HEAD
  PRINT BUDGET
  SAVE BUDGET

period 398 step 29 
  SAVE HEAD
  PRINT BUDGET
  SAVE BUDGET

period 399 step 31 
  SAVE HEAD
  PRINT BUDGET
  SAVE BUDGET

period 400 step 30 
  SAVE HEAD
  PRINT BUDGET
  SAVE BUDGET

period 401 step 31 
  SAVE HEAD
  PRINT BUDGET
  SAVE BUDGET

period 402 step 30 
  SAVE HEAD
  PRINT BUDGET
  SAVE BUDGET

period 403 step 31 
  SAVE HEAD
  PRINT BUDGET
  SAVE BUDGET

period 404 step 31 
  SAVE HEAD
  PRINT BUDGET
  SAVE BUDGET

period 405 step 30 
  SAVE HEAD
  PRINT BUDGET
  SAVE BUDGET

period 406 step 31 
  SAVE HEAD
  PRINT BUDGET
  SAVE BUDGET

period 407 step 30 
  SAVE HEAD
  PRINT BUDGET
  SAVE BUDGET

period 408 step 31 
  SAVE HEAD
  PRINT BUDGET
  SAVE BUDGET

period 409 step 31 
  SAVE HEAD
  PRINT BUDGET
  SAVE BUDGET

period 410 step 28 
  SAVE HEAD
  PRINT BUDGET
  SAVE BUDGET

period 411 step 31 
  SAVE HEAD
  PRINT BUDGET
  SAVE BUDGET

period 412 step 30 
  SAVE HEAD
  PRINT BUDGET
  SAVE BUDGET

period 413 step 31 
  SAVE HEAD
  PRINT BUDGET
  SAVE BUDGET

period 414 step 30 
  SAVE HEAD
  PRINT BUDGET
  SAVE BUDGET

period 415 step 31 
  SAVE HEAD
  PRINT BUDGET
  SAVE BUDGET

period 416 step 31 
  SAVE HEAD
  PRINT BUDGET
  SAVE BUDGET

period 417 step 30 
  SAVE HEAD
  PRINT BUDGET
  SAVE BUDGET

period 418 step 31 
  SAVE HEAD
  PRINT BUDGET
  SAVE BUDGET

period 419 step 30 
  SAVE HEAD
  PRINT BUDGET
  SAVE BUDGET

period 420 step 31 
  SAVE HEAD
  PRINT BUDGET
  SAVE BUDGET

period 421 step 31 
  SAVE HEAD
  PRINT BUDGET
  SAVE BUDGET

period 422 step 28 
  SAVE HEAD
  PRINT BUDGET
  SAVE BUDGET

period 423 step 31 
  SAVE HEAD
  PRINT BUDGET
  SAVE BUDGET

period 424 step 30 
  SAVE HEAD
  PRINT BUDGET
  SAVE BUDGET

period 425 step 31 
  SAVE HEAD
  PRINT BUDGET
  SAVE BUDGET

period 426 step 30 
  SAVE HEAD
  PRINT BUDGET
  SAVE BUDGET

period 427 step 31 
  SAVE HEAD
  PRINT BUDGET
  SAVE BUDGET

period 428 step 31 
  SAVE HEAD
  PRINT BUDGET
  SAVE BUDGET

period 429 step 30 
  SAVE HEAD
  PRINT BUDGET
  SAVE BUDGET

period 430 step 31 
  SAVE HEAD
  PRINT BUDGET
  SAVE BUDGET

period 431 step 30 
  SAVE HEAD
  PRINT BUDGET
  SAVE BUDGET

period 432 step 31 
  SAVE HEAD
  PRINT BUDGET
  SAVE BUDGET

period 433 step 31 
  SAVE HEAD
  PRINT BUDGET
  SAVE BUDGET

period 434 step 28 
  SAVE HEAD
  PRINT BUDGET
  SAVE BUDGET

period 435 step 31 
  SAVE HEAD
  PRINT BUDGET
  SAVE BUDGET

period 436 step 30 
  SAVE HEAD
  PRINT BUDGET
  SAVE BUDGET

period 437 step 31 
  SAVE HEAD
  PRINT BUDGET
  SAVE BUDGET

period 438 step 30 
  SAVE HEAD
  PRINT BUDGET
  SAVE BUDGET

period 439 step 31 
  SAVE HEAD
  PRINT BUDGET
  SAVE BUDGET

period 440 step 31 
  SAVE HEAD
  PRINT BUDGET
  SAVE BUDGET

period 441 step 30 
  SAVE HEAD
  PRINT BUDGET
  SAVE BUDGET

period 442 step 31 
  SAVE HEAD
  PRINT BUDGET
  SAVE BUDGET

period 443 step 30 
  SAVE HEAD
  PRINT BUDGET
  SAVE BUDGET

period 444 step 31 
  SAVE HEAD
  PRINT BUDGET
  SAVE BUDGET

period 445 step 31 
  SAVE HEAD
  PRINT BUDGET
  SAVE BUDGET

period 446 step 29 
  SAVE HEAD
  PRINT BUDGET
  SAVE BUDGET

period 447 step 31 
  SAVE HEAD
  PRINT BUDGET
  SAVE BUDGET

period 448 step 30 
  SAVE HEAD
  PRINT BUDGET
  SAVE BUDGET

period 449 step 31 
  SAVE HEAD
  PRINT BUDGET
  SAVE BUDGET

period 450 step 30 
  SAVE HEAD
  PRINT BUDGET
  SAVE BUDGET

period 451 step 31 
  SAVE HEAD
  PRINT BUDGET
  SAVE BUDGET

period 452 step 31 
  SAVE HEAD
  PRINT BUDGET
  SAVE BUDGET

period 453 step 30 
  SAVE HEAD
  PRINT BUDGET
  SAVE BUDGET

period 454 step 31 
  SAVE HEAD
  PRINT BUDGET
  SAVE BUDGET

period 455 step 30 
  SAVE HEAD
  PRINT BUDGET
  SAVE BUDGET

period 456 step 31 
  SAVE HEAD
  PRINT BUDGET
  SAVE BUDGET

period 457 step 31 
  SAVE HEAD
  PRINT BUDGET
  SAVE BUDGET

period 458 step 28 
  SAVE HEAD
  PRINT BUDGET
  SAVE BUDGET

period 459 step 31 
  SAVE HEAD
  PRINT BUDGET
  SAVE BUDGET

period 460 step 30 
  SAVE HEAD
  PRINT BUDGET
  SAVE BUDGET

period 461 step 31 
  SAVE HEAD
  PRINT BUDGET
  SAVE BUDGET

period 462 step 30 
  SAVE HEAD
  PRINT BUDGET
  SAVE BUDGET

period 463 step 31 
  SAVE HEAD
  PRINT BUDGET
  SAVE BUDGET

period 464 step 31 
  SAVE HEAD
  PRINT BUDGET
  SAVE BUDGET

period 465 step 30 
  SAVE HEAD
  PRINT BUDGET
  SAVE BUDGET

period 466 step 31 
  SAVE HEAD
  PRINT BUDGET
  SAVE BUDGET

period 467 step 30 
  SAVE HEAD
  PRINT BUDGET
  SAVE BUDGET

period 468 step 31 
  SAVE HEAD
  PRINT BUDGET
  SAVE BUDGET

period 469 step 31 
  SAVE HEAD
  PRINT BUDGET
  SAVE BUDGET

period 470 step 28 
  SAVE HEAD
  PRINT BUDGET
  SAVE BUDGET

period 471 step 31 
  SAVE HEAD
  PRINT BUDGET
  SAVE BUDGET

period 472 step 30 
  SAVE HEAD
  PRINT BUDGET
  SAVE BUDGET

period 473 step 31 
  SAVE HEAD
  PRINT BUDGET
  SAVE BUDGET

period 474 step 30 
  SAVE HEAD
  PRINT BUDGET
  SAVE BUDGET

period 475 step 31 
  SAVE HEAD
  PRINT BUDGET
  SAVE BUDGET

period 476 step 31 
  SAVE HEAD
  PRINT BUDGET
  SAVE BUDGET

period 477 step 30 
  SAVE HEAD
  PRINT BUDGET
  SAVE BUDGET

period 478 step 31 
  SAVE HEAD
  PRINT BUDGET
  SAVE BUDGET

period 479 step 30 
  SAVE HEAD
  PRINT BUDGET
  SAVE BUDGET

period 480 step 31 
  SAVE HEAD
  PRINT BUDGET
  SAVE BUDGET

period 481 step 31 
  SAVE HEAD
  PRINT BUDGET
  SAVE BUDGET

period 482 step 28 
  SAVE HEAD
  PRINT BUDGET
  SAVE BUDGET

period 483 step 31 
  SAVE HEAD
  PRINT BUDGET
  SAVE BUDGET

period 484 step 30 