188 75 -999.0 # HYD package for  MODFLOW-NWT, generated by Flopy.
BAS HD I 1 92164.765625 62606.390625 HO_0 
BAS HD I 0 94686.515625 61280.5546875 HO_2 
BAS HD I 2 90737.2109375 60934.5585938 HO_3 
BAS HD I 2 89459.328125 56620.3359375 HO_4 
BAS HD I 2 88967.21875 56944.0039062 HO_5 
BAS HD I 2 85887.3125 55880.2929688 HO_6 
BAS HD I 2 85887.3125 55711.8398438 HO_7 
BAS HD I 0 78161.9296875 54121.7460938 HO_8 
BAS HD I 0 75674.296875 52987.6289062 HO_9 
BAS HD I 0 72782.078125 51432.78125 HO_10 
BAS HD I 0 90879.2421875 50922.1445312 HO_11 
BAS HD I 0 90387.1484375 51161.6328125 HO_12 
BAS HD I 2 77753.703125 49427.9765625 HO_13 
BAS HD I 2 88278.4921875 49548.3359375 HO_14 
BAS HD I 2 82662.8359375 48814.5585938 HO_15 
BAS HD I 0 92680.765625 48597.7578125 HO_16 
BAS HD I 0 80742.734375 47467.5664062 HO_17 
BAS HD I 2 66856.3671875 46848.5625 HO_18 
BAS HD I 2 66162.0390625 47172.4140625 HO_19 
BAS HD I 0 73143.390625 46695.2148438 HO_20 
BAS HD I 0 85348.171875 46264.3242188 HO_21 
BAS HD I 0 85247.125 46264.328125 HO_22 
BAS HD I 0 86521.4296875 45882.546875 HO_23 
BAS HD I 0 97245.2265625 46001.6484375 HO_24 
BAS HD I 1 94482.328125 45599.4335938 HO_26 
BAS HD I 0 73218.140625 45542.9453125 HO_27 
BAS HD I 0 94179.1640625 45683.5507812 HO_28 
BAS HD I 0 94267.1875 44854.5351562 HO_29 
BAS HD I 0 77609.53125 44184.5429688 HO_30 
BAS HD I 0 92663.796875 44251.8671875 HO_31 
BAS HD I 0 87642.1796875 43953.140625 HO_32 
BAS HD I 0 76220.65625 43737.6289062 HO_33 
BAS HD I 0 86455.875 43590.3007812 HO_34 
BAS HD I 2 82316.515625 43401.90625 HO_35 
BAS HD I 0 94025.6484375 43798.6796875 HO_36 
BAS HD I 0 81231.109375 43628.4453125 HO_37 
BAS HD I 0 84083.1015625 43201.4453125 HO_38 
BAS HD I 0 77671.21875 42624.3632812 HO_39 
BAS HD I 0 86315.4921875 42029.7265625 HO_40 
BAS HD I 2 72924.15625 41847.0820312 HO_41 
BAS HD I 0 77746.0625 41724.5546875 HO_42 
BAS HD I 0 71143.78125 41471.4765625 HO_43 
BAS HD I 0 71130.671875 40979.5976562 HO_44 
BAS HD I 0 73983.8125 41310.1210938 HO_45 
BAS HD I 0 75851.8203125 40856.984375 HO_46 
BAS HD I 2 71420.9453125 40992.6835938 HO_47 
BAS HD I 0 94742.2265625 40437.2578125 HO_48 
BAS HD I 0 94742.2265625 40437.2578125 HO_49 
BAS HD I 0 94338.125 40100.4179688 HO_50 
BAS HD I 0 94338.125 40100.4179688 HO_51 
BAS HD I 0 94627.9765625 40281.6992188 HO_52 
BAS HD I 0 94627.9765625 40281.6992188 HO_53 
BAS HD I 0 94627.9765625 40281.6992188 HO_54 
BAS HD I 0 94627.9765625 40281.6992188 HO_55 
BAS HD I 1 76418.9296875 39886.0078125 HO_56 
BAS HD I 0 71003.5625 40332.6210938 HO_57 
BAS HD I 0 73350.96875 39484.6796875 HO_58 
BAS HD I 0 71280.2734375 38927.8046875 HO_59 
BAS HD I 2 72656.3515625 39050.90625 HO_60 
BAS HD I 0 89290.4453125 39323.0507812 HO_61 
BAS HD I 0 92620.609375 38837.296875 HO_62 
BAS HD I 0 92216.578125 38079.6132812 HO_63 
BAS HD I 0 95849.609375 37509.609375 HO_64 
BAS HD I 0 93389.6015625 37613.296875 HO_65 
BAS HD I 0 95748.5625 37509.5820312 HO_66 
BAS HD I 0 95748.5859375 37425.4023438 HO_67 
BAS HD I 0 97413.4609375 36971.96875 HO_68 
BAS HD I 0 95836.46875 37101.5078125 HO_69 
BAS HD I 0 71808.171875 36565.4648438 HO_70 
BAS HD I 0 70823.375 36455.453125 HO_71 
BAS HD I 2 75834.9609375 36766.0390625 HO_72 
BAS HD I 1 76718.2734375 36118.5117188 HO_73 
BAS HD I 0 45778.0703125 36412.8164062 HO_74 
BAS HD I 0 68902.890625 35362.234375 HO_75 
BAS HD I 0 69557.8203125 33478.6132812 HO_76 
BAS HD I 0 65605.4140625 33136.3867188 HO_77 
BAS HD I 0 65504.3085938 33052.2929688 HO_78 
BAS HD I 0 66955.5859375 32359.7167969 HO_79 
BAS HD I 0 59352.7226562 31423.1191406 HO_80 
BAS HD I 0 67900.59375 30068.3242188 HO_81 
BAS HD I 0 39415.8789062 30264.1777344 HO_82 
BAS HD I 0 70789.6328125 28022.4667969 HO_83 
BAS HD I 2 75497.6328125 27237.5761719 HO_85 
BAS HD I 1 75497.6328125 27237.5761719 HO_86 
BAS HD I 0 75497.6328125 27237.5761719 HO_87 
BAS HD I 0 75497.6328125 27237.5761719 HO_88 
BAS HD I 0 84041.40625 26217.90625 HO_89 
BAS HD I 0 68969.7890625 26172.1777344 HO_90 
BAS HD I 0 65522.7929688 26167.1113281 HO_91 
BAS HD I 0 69638.1875 25453.5351562 HO_92 
BAS HD I 0 68059.921875 25415.4003906 HO_93 
BAS HD I 0 65773.53125 24283.8945312 HO_94 
BAS HD I 0 59749.5234375 23976.2460938 HO_95 
BAS HD I 2 75102.5234375 23373.3398438 HO_96 
BAS HD I 0 66719.1953125 23002.1796875 HO_97 
BAS HD I 0 56767.8164062 22916.7089844 HO_98 
BAS HD I 0 56767.8164062 22916.7089844 HO_99 
BAS HD I 0 56767.8164062 22916.7089844 HO_100 
BAS HD I 0 56767.8164062 22916.7089844 HO_101 
BAS HD I 0 56767.8164062 22916.7089844 HO_102 
BAS HD I 0 59710.03125 22332.8847656 HO_104 
BAS HD I 0 72904.8984375 22338.8046875 HO_106 
BAS HD I 2 67488.8515625 22535.8574219 HO_107 
BAS HD I 2 67488.8515625 22535.8574219 HO_108 
BAS HD I 0 67488.8515625 22535.8574219 HO_109 
BAS HD I 0 67488.8515625 22535.8574219 HO_110 
BAS HD I 0 67488.8515625 22535.8574219 HO_111 
BAS HD I 1 58030.0742188 22126.7519531 HO_112 
BAS HD I 0 57814.78125 21551.1367188 HO_113 
BAS HD I 0 61350.6171875 21148.0039062 HO_114 
BAS HD I 0 60919.640625 19491.8632812 HO_115 
BAS HD I 0 60919.4335938 19239.4804688 HO_116 
BAS HD I 0 62295.9804688 19277.4726562 HO_117 
BAS HD I 2 75463.6015625 18298.2734375 HO_118 
BAS HD I 0 70931.7421875 18689.5039062 HO_119 
BAS HD I 2 69630.328125 17415.4667969 HO_120 
BAS HD I 2 87325.0703125 16716.6347656 HO_121 
BAS HD I 0 75903.453125 16427.1796875 HO_122 
BAS HD I 2 73731.953125 15956.3300781 HO_123 
BAS HD I 2 79929.5 16204.0478516 HO_124 
BAS HD I 0 71951.8046875 16002.8417969 HO_125 
BAS HD I 1 87109.8671875 15972.1279297 HO_126 
BAS HD I 2 16644.6757812 15196.9492188 HO_127 
BAS HD I 1 100771.953125 14906.5371094 HO_128 
BAS HD I 1 85910.4140625 14950.1611328 HO_129 
BAS HD I 2 100569.851562 14906.4433594 HO_130 
BAS HD I 2 75472.828125 14854.59375 HO_131 
BAS HD I 0 75472.828125 14854.59375 HO_132 
BAS HD I 0 75472.828125 14854.59375 HO_133 
BAS HD I 0 75472.828125 14854.59375 HO_134 
BAS HD I 0 75472.796875 14770.4785156 HO_135 
BAS HD I 2 86200.4453125 15215.0664062 HO_136 
BAS HD I 1 81568.8359375 14429.1425781 HO_137 
BAS HD I 0 84811.96875 14517.0498047 HO_138 
BAS HD I 0 83827.6640625 14576.0556641 HO_139 
BAS HD I 0 87171.5625 14495.7001953 HO_140 
BAS HD I 0 86679.4453125 14651.3740234 HO_141 
BAS HD I 1 83133.3515625 14058.84375 HO_142 
BAS HD I 1 83133.3515625 14058.84375 HO_143 
BAS HD I 2 74765.2734375 14266.0517578 HO_144 
BAS HD I 2 102713.265625 13887.9013672 HO_145 
BAS HD I 2 87461.5859375 14087.6796875 HO_146 
BAS HD I 2 87461.59375 13919.4541016 HO_147 
BAS HD I 2 86969.4765625 14159.2431641 HO_148 
BAS HD I 0 76532.328125 14232.2021484 HO_149 
BAS HD I 0 99559.8515625 13812.5224609 HO_150 
BAS HD I 2 88735.796875 13788.8603516 HO_151 
BAS HD I 2 87259.484375 14255.8955078 HO_152 
BAS HD I 2 79384.7109375 13802.8339844 HO_153 
BAS HD I 2 100934.375 14102.4453125 HO_154 
BAS HD I 2 100139.648438 13416.8740234 HO_155 
BAS HD I 2 87839.515625 13692.1796875 HO_156 
BAS HD I 2 100530.335938 13765.8085938 HO_157 
BAS HD I 2 99054.78125 13391.7548828 HO_158 
BAS HD I 2 102788.117188 12819.0625 HO_159 
BAS HD I 1 100820.367188 13273.5869141 HO_160 
BAS HD I 2 96885.0625 13005.0957031 HO_161 
BAS HD I 2 97767.8125 13282.4550781 HO_162 
BAS HD I 2 87927.4453125 13200.03125 HO_163 
BAS HD I 2 99041.59375 13067.6386719 HO_164 
BAS HD I 1 85264.7578125 13053.265625 HO_165 
BAS HD I 2 100706.359375 12444.7412109 HO_166 
BAS HD I 2 90866.765625 12783.0195312 HO_167 
BAS HD I 1 93225.96875 12340.9677734 HO_168 
BAS HD I 1 91055.734375 12374.9541016 HO_169 
BAS HD I 1 91837.7421875 12231.7402344 HO_170 
BAS HD I 2 89869.546875 12181.6777344 HO_171 
BAS HD I 0 97640.5234375 12297.7841797 HO_172 
BAS HD I 1 97640.5546875 12213.6767578 HO_173 
BAS HD I 1 72048.921875 11983.4785156 HO_174 
BAS HD I 1 97930.7109375 11385.0507812 HO_175 
BAS HD I 2 99204.3671875 11506.6054688 HO_176 
BAS HD I 2 99103.2109375 11758.8798828 HO_177 
BAS HD I 2 98611.4296875 11409.953125 HO_178 
BAS HD I 1 90638.46875 11546.265625 HO_179 
BAS HD I 0 86398.6484375 10941.6015625 HO_180 
BAS HD I 0 86789.71875 11038.203125 HO_181 
BAS HD I 2 78813.7734375 10922.3691406 HO_182 
BAS HD I 0 75860.28125 11267.9111328 HO_183 
BAS HD I 2 81652.890625 10168.8964844 HO_185 
BAS HD I 2 74836.3046875 9682.98144531 HO_186 
BAS HD I 2 91469.1015625 9181.89257812 HO_187 
BAS HD I 0 85564.0078125 9284.55566406 HO_188 
BAS HD I 2 78269.1328125 9278.27734375 HO_189 
BAS HD I 2 84452.4296875 8359.52050781 HO_190 
BAS HD I 2 83920.8828125 6450.33349609 HO_191 
BAS HD I 2 83819.8359375 6450.34179688 HO_192 
BAS HD I 2 78985.7421875 6086.33496094 HO_193 
