# GHB package for  MODFLOW-NWT, generated by Flopy.
       546         1
       546         0 # stress period 1
         1        17       149   2.5718535E+03   4.4420410E+03
         1        16       149   2.5803059E+03   5.4010010E+03
         1        16       150   2.6022820E+03   5.2529199E+03
         1        16       151   2.6242581E+03   5.2008789E+03
         1        16       152   2.6462341E+03   4.8070093E+03
         1        15       153   2.6766626E+03   5.2911499E+03
         1        15       154   2.6986387E+03   4.8648413E+03
         1        14       155   2.7290671E+03   5.2719800E+03
         1        14       156   2.7510432E+03   4.9098218E+03
         1        14       157   2.7730195E+03   4.4206592E+03
         1        13       158   2.8034480E+03   4.7805811E+03
         1        13       159   2.8254241E+03   6.1762793E+03
         1        13       160   2.8474001E+03   5.8445996E+03
         1        12       161   2.8778286E+03   6.5637817E+03
         1        12       162   2.8998047E+03   6.5063403E+03
         2        17       149   2.5718535E+03   7.0165039E+02
         2        16       149   2.5803059E+03   5.7770020E+02
         2        16       150   2.6022820E+03   8.5684082E+02
         2        16       151   2.6242581E+03   5.2248047E+02
         2        16       152   2.6462341E+03   6.2343994E+02
         2        15       153   2.6766626E+03   6.3693848E+02
         2        15       154   2.6986387E+03   8.5204834E+02
         2        14       155   2.7290671E+03   7.9716797E+02
         2        14       156   2.7510432E+03   7.2399902E+02
         2        14       157   2.7730195E+03   8.8452881E+02
         2        13       158   2.8034480E+03   7.6764893E+02
         2        13       159   2.8254241E+03   0.0000000E+00
         2        13       160   2.8474001E+03   0.0000000E+00
         2        12       161   2.8778286E+03   0.0000000E+00
         2        12       162   2.8998047E+03   0.0000000E+00
         3        17       149   2.5718535E+03   7.1929932E+02
         3        16       149   2.5803059E+03   8.1218018E+02
         3        16       150   2.6022820E+03   7.3826904E+02
         3        16       151   2.6242581E+03   8.0560059E+02
         3        16       152   2.6462341E+03   1.0202319E+03
         3        15       153   2.6766626E+03   1.1644214E+03
         3        15       154   2.6986387E+03   1.0713306E+03
         3        14       155   2.7290671E+03   1.0687012E+03
         3        14       156   2.7510432E+03   9.9218018E+02
         3        14       157   2.7730195E+03   9.2211182E+02
         3        13       158   2.8034480E+03   9.2142090E+02
         3        13       159   2.8254241E+03   0.0000000E+00
         3        13       160   2.8474001E+03   0.0000000E+00
         3        12       161   2.8778286E+03   0.0000000E+00
         3        12       162   2.8998047E+03   0.0000000E+00
         1        52       107   1.8873770E+03   1.2583820E+04
         1        51       103   1.9033337E+03   1.2805952E+04
         1        51       104   1.8977273E+03   1.2914312E+04
         1        51       105   1.8921208E+03   1.2890601E+04
         1        51       106   1.8865144E+03   1.2854229E+04
         1        51       108   1.8753015E+03   1.2702490E+04
         1        50       109   1.8632262E+03   1.2773312E+04
         1        49       110   1.8511508E+03   1.2766299E+04
         1        48       111   1.8390753E+03   1.2674764E+04
         1        47       111   1.8326064E+03   1.2754592E+04
         1        46       111   1.8261375E+03   1.2787238E+04
         1        45       111   1.8196685E+03   1.2766494E+04
         1        44       110   1.8188059E+03   1.2562612E+04
         1        43       109   1.8179435E+03   1.1422573E+04
         1        42       109   1.8114745E+03   1.0809500E+04
         1        41       109   1.8050055E+03   1.0163020E+04
         1        40       109   1.7985365E+03   9.5156299E+03
         1        39       109   1.7920676E+03   8.9220195E+03
         1        38       109   1.7855986E+03   8.3920410E+03
         1        37       110   1.7735232E+03   8.4158398E+03
         1        37       111   1.7679167E+03   8.5619414E+03
         1        37       112   1.7623103E+03   8.6004189E+03
         1        37       113   1.7567039E+03   8.6938496E+03
         1        37       114   1.7510975E+03   8.4827617E+03
         1        36       115   1.7390221E+03   8.0315811E+03
         1        36       116   1.7334156E+03   7.2750186E+03
         2        52       107   1.8873770E+03   9.8698594E+03
         2        51       103   1.9033337E+03   3.6901819E+03
         2        51       104   1.8977273E+03   5.0260342E+03
         2        51       105   1.8921208E+03   6.3705859E+03
         2        51       106   1.8865144E+03   7.5535884E+03
         2        51       108   1.8753015E+03   9.1157676E+03
         2        50       109   1.8632262E+03   8.0673408E+03
         2        49       110   1.8511508E+03   7.2586875E+03
         2        48       111   1.8390753E+03   6.9545757E+03
         2        47       111   1.8326064E+03   5.8364053E+03
         2        46       111   1.8261375E+03   4.9499419E+03
         2        45       111   1.8196685E+03   4.1758408E+03
         2        44       110   1.8188059E+03   2.3229595E+03
         2        43       109   1.8179435E+03   1.8142090E+03
         2        42       109   1.8114745E+03   1.7781885E+03
         2        41       109   1.8050055E+03   1.7681335E+03
         2        40       109   1.7985365E+03   1.7729199E+03
         2        39       109   1.7920676E+03   1.4859399E+03
         2        38       109   1.7855986E+03   1.2440100E+03
         2        37       110   1.7735232E+03   6.4169922E+02
         2        37       111   1.7679167E+03   9.3249023E+02
         2        37       112   1.7623103E+03   1.4051099E+03
         2        37       113   1.7567039E+03   1.6560400E+03
         2        37       114   1.7510975E+03   2.3306702E+03
         2        36       115   1.7390221E+03   1.5049707E+03
         2        36       116   1.7334156E+03   1.9326404E+03
         3        52       107   1.8873770E+03   2.6939175E+03
         3        51       103   1.9033337E+03   2.3453831E+03
         3        51       104   1.8977273E+03   2.6945359E+03
         3        51       105   1.8921208E+03   2.3965520E+03
         3        51       106   1.8865144E+03   2.2635906E+03
         3        51       108   1.8753015E+03   2.4691990E+03
         3        50       109   1.8632262E+03   2.2522856E+03
         3        49       110   1.8511508E+03   2.0965469E+03
         3        48       111   1.8390753E+03   2.0528560E+03
         3        47       111   1.8326064E+03   1.8958923E+03
         3        46       111   1.8261375E+03   1.8557151E+03
         3        45       111   1.8196685E+03   1.9453179E+03
         3        44       110   1.8188059E+03   1.8876813E+03
         3        43       109   1.8179435E+03   1.7295898E+03
         3        42       109   1.8114745E+03   1.5032336E+03
         3        41       109   1.8050055E+03   1.5985229E+03
         3        40       109   1.7985365E+03   1.6678888E+03
         3        39       109   1.7920676E+03   1.7190558E+03
         3        38       109   1.7855986E+03   1.4414099E+03
         3        37       110   1.7735232E+03   1.1197607E+03
         3        37       111   1.7679167E+03   1.2553699E+03
         3        37       112   1.7623103E+03   2.1942908E+03
         3        37       113   1.7567039E+03   2.7625361E+03
         3        37       114   1.7510975E+03   3.2192437E+03
         3        36       115   1.7390221E+03   2.5665991E+03
         3        36       116   1.7334156E+03   3.0454907E+03
         1        54        87   1.6880167E+03   1.2798622E+04
         1        54        88   1.7031169E+03   1.2816992E+04
         1        53        86   1.6701202E+03   1.2955991E+04
         1        53        89   1.7154208E+03   1.3038105E+04
         1        53        90   1.7305209E+03   1.2997586E+04
         1        53        91   1.7456211E+03   1.2941359E+04
         1        53        92   1.7607212E+03   1.2789561E+04
         1        53        94   1.7909215E+03   1.2650227E+04
         1        52        82   1.6069233E+03   1.1975584E+04
         1        52        83   1.6220236E+03   1.2388064E+04
         1        52        84   1.6371237E+03   1.2865834E+04
         1        52        85   1.6522238E+03   1.3057125E+04
         1        52        93   1.7730250E+03   1.2944695E+04
         1        52        95   1.8032253E+03   1.2876162E+04
         1        52        96   1.8183254E+03   1.2414689E+04
         1        51        81   1.5890269E+03   1.0848966E+04
         1        51        97   1.8306293E+03   1.1402030E+04
         1        51        98   1.8457295E+03   1.1247999E+04
         1        51        99   1.8608296E+03   1.1204090E+04
         1        50        78   1.5409301E+03   9.6317100E+03
         1        50        79   1.5560303E+03   9.8386904E+03
         1        50        80   1.5711304E+03   1.0076490E+04
         1        50       100   1.8731334E+03   1.0995371E+04
         1        50       101   1.8882336E+03   1.1266631E+04
         1        50       102   1.9033337E+03   1.1903182E+04
         1        49        77   1.5230336E+03   9.3889502E+03
         1        48        64   1.3239353E+03   6.7421753E+03
         1        48        65   1.3390355E+03   7.9809609E+03
         1        48        76   1.5051371E+03   9.3222031E+03
         1        47        63   1.3060388E+03   6.8305781E+03
         1        47        66   1.3513392E+03   1.0448810E+04
         1        47        74   1.4721405E+03   9.8531348E+03
         1        47        75   1.4872406E+03   9.4868838E+03
         1        47        76   1.5023408E+03   9.3108945E+03
         1        46        60   1.2579420E+03   5.4971997E+03
         1        46        61   1.2730422E+03   6.2314404E+03
         1        46        62   1.2881423E+03   7.0150386E+03
         1        46        67   1.3636431E+03   1.2375751E+04
         1        46        68   1.3787433E+03   1.2539369E+04
         1        46        69   1.3938434E+03   1.2243947E+04
         1        46        70   1.4089436E+03   1.1453827E+04
         1        46        71   1.4240437E+03   1.0973003E+04
         1        46        72   1.4391439E+03   1.0505020E+04
         1        46        73   1.4542440E+03   1.0214752E+04
         1        45        58   1.2249454E+03   5.3501196E+03
         1        45        59   1.2400455E+03   5.7156201E+03
         1        44        55   1.1768486E+03   4.8764795E+03
         1        44        56   1.1919489E+03   5.3312402E+03
         1        44        57   1.2070490E+03   5.7896787E+03
         1        43        52   1.1287518E+03   4.4105996E+03
         1        43        53   1.1438521E+03   5.0098594E+03
         1        43        54   1.1589521E+03   5.3599902E+03
         1        42        51   1.1108553E+03   4.4468301E+03
         1        41        50   1.0929589E+03   4.1705103E+03
         1        40        48   1.0599623E+03   3.2066199E+03
         1        40        49   1.0750624E+03   3.5381592E+03
         2        54        87   1.6880167E+03   1.2795620E+04
         2        54        88   1.7031169E+03   1.3505731E+04
         2        53        86   1.6701202E+03   8.8483652E+03
         2        53        89   1.7154208E+03   1.1145216E+04
         2        53        90   1.7305209E+03   1.0825780E+04
         2        53        91   1.7456211E+03   1.0287699E+04
         2        53        92   1.7607212E+03   9.0963164E+03
         2        53        94   1.7909215E+03   6.9417021E+03
         2        52        82   1.6069233E+03   2.7351367E+03
         2        52        83   1.6220236E+03   3.2352844E+03
         2        52        84   1.6371237E+03   3.8574172E+03
         2        52        85   1.6522238E+03   4.9803037E+03
         2        52        93   1.7730250E+03   5.4958960E+03
         2        52        95   1.8032253E+03   3.9483882E+03
         2        52        96   1.8183254E+03   3.2477856E+03
         2        51        81   1.5890269E+03   1.9322552E+03
         2        51        97   1.8306293E+03   2.3243501E+03
         2        51        98   1.8457295E+03   2.3182312E+03
         2        51        99   1.8608296E+03   2.4440100E+03
         2        50        78   1.5409301E+03   1.1543738E+03
         2        50        79   1.5560303E+03   1.2083765E+03
         2        50        80   1.5711304E+03   1.2867169E+03
         2        50       100   1.8731334E+03   1.7200012E+03
         2        50       101   1.8882336E+03   1.9706732E+03
         2        50       102   1.9033337E+03   2.2190083E+03
         2        49        77   1.5230336E+03   1.0651691E+03
         2        48        64   1.3239353E+03   1.8656110E+03
         2        48        65   1.3390355E+03   2.2696025E+03
         2        48        76   1.5051371E+03   1.0220654E+03
         2        47        63   1.3060388E+03   1.5924811E+03
         2        47        66   1.3513392E+03   1.9142542E+03
         2        47        74   1.4721405E+03   1.1053284E+03
         2        47        75   1.4872406E+03   1.0850732E+03
         2        47        76   1.5023408E+03   9.9413147E+02
         2        46        60   1.2579420E+03   1.6093231E+03
         2        46        61   1.2730422E+03   1.6344550E+03
         2        46        62   1.2881423E+03   1.6977460E+03
         2        46        67   1.3636431E+03   1.7444272E+03
         2        46        68   1.3787433E+03   1.6938577E+03
         2        46        69   1.3938434E+03   1.5728369E+03
         2        46        70   1.4089436E+03   1.8194702E+03
         2        46        71   1.4240437E+03   1.3029816E+03
         2        46        72   1.4391439E+03   1.2073883E+03
         2        46        73   1.4542440E+03   1.1518927E+03
         2        45        58   1.2249454E+03   1.6738660E+03
         2        45        59   1.2400455E+03   1.6522809E+03
         2        44        55   1.1768486E+03   1.7458032E+03
         2        44        56   1.1919489E+03   1.7168170E+03
         2        44        57   1.2070490E+03   1.7115497E+03
         2        43        52   1.1287518E+03   1.8643835E+03
         2        43        53   1.1438521E+03   1.8183533E+03
         2        43        54   1.1589521E+03   1.7693146E+03
         2        42        51   1.1108553E+03   1.8714130E+03
         2        41        50   1.0929589E+03   1.8814911E+03
         2        40        48   1.0599623E+03   2.1010803E+03
         2        40        49   1.0750624E+03   1.8727844E+03
         3        54        87   1.6880167E+03   4.5373149E+03
         3        54        88   1.7031169E+03   4.3143037E+03
         3        53        86   1.6701202E+03   4.7062847E+03
         3        53        89   1.7154208E+03   4.4622549E+03
         3        53        90   1.7305209E+03   3.9572925E+03
         3        53        91   1.7456211E+03   3.4642778E+03
         3        53        92   1.7607212E+03   4.6537578E+03
         3        53        94   1.7909215E+03   4.7382329E+03
         3        52        82   1.6069233E+03   2.2260598E+03
         3        52        83   1.6220236E+03   2.0979106E+03
         3        52        84   1.6371237E+03   2.4486970E+03
         3        52        85   1.6522238E+03   2.7873660E+03
         3        52        93   1.7730250E+03   3.2950256E+03
         3        52        95   1.8032253E+03   2.1855288E+03
         3        52        96   1.8183254E+03   2.4927134E+03
         3        51        81   1.5890269E+03   1.4304486E+03
         3        51        97   1.8306293E+03   1.6176801E+03
         3        51        98   1.8457295E+03   1.8797522E+03
         3        51        99   1.8608296E+03   1.5043610E+03
         3        50        78   1.5409301E+03   1.0959027E+03
         3        50        79   1.5560303E+03   1.2832324E+03
         3        50        80   1.5711304E+03   1.3953528E+03
         3        50       100   1.8731334E+03   1.8446478E+03
         3        50       101   1.8882336E+03   2.0613472E+03
         3        50       102   1.9033337E+03   1.4526898E+03
         3        49        77   1.5230336E+03   1.0899915E+03
         3        48        64   1.3239353E+03   7.0845352E+03
         3        48        65   1.3390355E+03   5.5901616E+03
         3        48        76   1.5051371E+03   1.1573926E+03
         3        47        63   1.3060388E+03   7.7529111E+03
         3        47        66   1.3513392E+03   3.7170063E+03
         3        47        74   1.4721405E+03   1.1157910E+03
         3        47        75   1.4872406E+03   1.1107190E+03
         3        47        76   1.5023408E+03   9.9488098E+02
         3        46        60   1.2579420E+03   9.1044219E+03
         3        46        61   1.2730422E+03   8.5177529E+03
         3        46        62   1.2881423E+03   8.1294146E+03
         3        46        67   1.3636431E+03   2.9651631E+03
         3        46        68   1.3787433E+03   2.4713953E+03
         3        46        69   1.3938434E+03   1.9688121E+03
         3        46        70   1.4089436E+03   1.6144729E+03
         3        46        71   1.4240437E+03   1.8272437E+03
         3        46        72   1.4391439E+03   1.3183389E+03
         3        46        73   1.4542440E+03   1.1620422E+03
         3        45        58   1.2249454E+03   9.6036084E+03
         3        45        59   1.2400455E+03   9.0605703E+03
         3        44        55   1.1768486E+03   1.0599469E+04
         3        44        56   1.1919489E+03   9.8782266E+03
         3        44        57   1.2070490E+03   9.3263906E+03
         3        43        52   1.1287518E+03   1.2028867E+04
         3        43        53   1.1438521E+03   1.0981473E+04
         3        43        54   1.1589521E+03   1.0180119E+04
         3        42        51   1.1108553E+03   1.1946902E+04
         3        41        50   1.0929589E+03   1.2187202E+04
         3        40        48   1.0599623E+03   1.4635465E+04
         3        40        49   1.0750624E+03   1.2681762E+04
         1        40        47   1.0599623E+03   3.2324956E+03
         1        39        46   1.0534291E+03   3.3712341E+03
         1        38        44   1.0428246E+03   3.4693389E+03
         1        38        45   1.0468960E+03   3.3898352E+03
         1        37        43   1.0362914E+03   3.3820972E+03
         1        36        42   1.0297582E+03   3.3936987E+03
         1        35        41   1.0232250E+03   3.5258599E+03
         1        34        41   1.0207633E+03   3.3962671E+03
         1        33        40   1.0142301E+03   3.4606636E+03
         1        32        39   1.0076970E+03   3.5542534E+03
         1        31        39   1.0052352E+03   3.4030579E+03
         1        30        38   9.9870203E+02   3.3953032E+03
         1        29        37   9.9216882E+02   3.2141504E+03
         1        28        36   9.8563568E+02   3.8003315E+03
         1        27        35   9.7910248E+02   4.3181064E+03
         1        26        35   9.7664075E+02   4.6319634E+03
         1        25        34   9.7010754E+02   4.6176357E+03
         1        24        33   9.6357440E+02   4.5291987E+03
         1        23        31   9.5296985E+02   4.0450728E+03
         1        23        32   9.5704120E+02   4.4196514E+03
         1        22        30   9.4643665E+02   3.8498328E+03
         1        21        28   9.3583209E+02   3.4797041E+03
         1        21        29   9.3990350E+02   3.7303472E+03
         1        20        24   9.1708478E+02   3.6691206E+03
         1        20        25   9.2115613E+02   3.5715845E+03
         1        20        26   9.2522754E+02   3.5463325E+03
         1        20        27   9.2929895E+02   3.4531255E+03
         1        19        22   9.0648016E+02   3.8485925E+03
         1        19        23   9.1055157E+02   3.6004858E+03
         1        18        20   8.9587561E+02   4.0175371E+03
         1        18        21   8.9994702E+02   3.7426501E+03
         1        17        17   8.8119965E+02   4.4594453E+03
         1        17        18   8.8527106E+02   4.1871934E+03
         1        17        19   8.8934247E+02   3.8650410E+03
         1        16         6   8.3395258E+02   5.9698496E+03
         1        16         7   8.3802399E+02   5.6534941E+03
         1        16         8   8.4209534E+02   5.4509141E+03
         1        16         9   8.4616675E+02   5.2832285E+03
         1        16        10   8.5023816E+02   5.1214839E+03
         1        16        11   8.5430951E+02   4.9777876E+03
         1        16        12   8.5838092E+02   4.8545049E+03
         1        16        13   8.6245233E+02   4.7441968E+03
         1        16        14   8.6652374E+02   4.6483213E+03
         1        16        15   8.7059509E+02   4.5544502E+03
         1        16        16   8.7466650E+02   4.4675645E+03
         1        15         5   8.2741937E+02   5.8934668E+03
         1        14         4   8.2088623E+02   5.8951851E+03
         2        40        47   1.0599623E+03   2.3766577E+03
         2        39        46   1.0534291E+03   2.4253931E+03
         2        38        44   1.0428246E+03   2.7039001E+03
         2        38        45   1.0468960E+03   2.3551514E+03
         2        37        43   1.0362914E+03   2.5494341E+03
         2        36        42   1.0297582E+03   2.5680635E+03
         2        35        41   1.0232250E+03   2.7839880E+03
         2        34        41   1.0207633E+03   2.4063594E+03
         2        33        40   1.0142301E+03   2.5844072E+03
         2        32        39   1.0076970E+03   2.8108936E+03
         2        31        39   1.0052352E+03   2.4449756E+03
         2        30        38   9.9870203E+02   2.5234973E+03
         2        29        37   9.9216882E+02   2.3581470E+03
         2        28        36   9.8563568E+02   2.1190278E+03
         2        27        35   9.7910248E+02   2.0859648E+03
         2        26        35   9.7664075E+02   1.9642316E+03
         2        25        34   9.7010754E+02   2.0466892E+03
         2        24        33   9.6357440E+02   2.1038779E+03
         2        23        31   9.5296985E+02   2.3229126E+03
         2        23        32   9.5704120E+02   2.1055122E+03
         2        22        30   9.4643665E+02   2.3152405E+03
         2        21        28   9.3583209E+02   2.5770972E+03
         2        21        29   9.3990350E+02   2.2904341E+03
         2        20        24   9.1708478E+02   2.8835557E+03
         2        20        25   9.2115613E+02   2.6728088E+03
         2        20        26   9.2522754E+02   2.5592727E+03
         2        20        27   9.2929895E+02   2.3578999E+03
         2        19        22   9.0648016E+02   3.0095837E+03
         2        19        23   9.1055157E+02   2.5968657E+03
         2        18        20   8.9587561E+02   3.1275264E+03
         2        18        21   8.9994702E+02   2.7036602E+03
         2        17        17   8.8119965E+02   3.5854556E+03
         2        17        18   8.8527106E+02   3.2128403E+03
         2        17        19   8.8934247E+02   2.7684387E+03
         2        16         6   8.3395258E+02   4.1468604E+03
         2        16         7   8.3802399E+02   3.9472727E+03
         2        16         8   8.4209534E+02   3.9045161E+03
         2        16         9   8.4616675E+02   3.8967761E+03
         2        16        10   8.5023816E+02   3.8747588E+03
         2        16        11   8.5430951E+02   3.8311143E+03
         2        16        12   8.5838092E+02   3.7684729E+03
         2        16        13   8.6245233E+02   3.6932241E+03
         2        16        14   8.6652374E+02   3.6102959E+03
         2        16        15   8.7059509E+02   3.4839287E+03
         2        16        16   8.7466650E+02   3.1701477E+03
         2        15         5   8.2741937E+02   3.7037402E+03
         2        14         4   8.2088623E+02   3.2223564E+03
         3        40        47   1.0599623E+03   1.6628771E+04
         3        39        46   1.0534291E+03   1.6902555E+04
         3        38        44   1.0428246E+03   1.9015771E+04
         3        38        45   1.0468960E+03   1.6588188E+04
         3        37        43   1.0362914E+03   1.8325637E+04
         3        36        42   1.0297582E+03   1.8507229E+04
         3        35        41   1.0232250E+03   1.9638602E+04
         3        34        41   1.0207633E+03   1.7090234E+04
         3        33        40   1.0142301E+03   1.7945139E+04
         3        32        39   1.0076970E+03   1.8756352E+04
         3        31        39   1.0052352E+03   1.6296466E+04
         3        30        38   9.9870203E+02   1.6221209E+04
         3        29        37   9.9216882E+02   1.5175066E+04
         3        28        36   9.8563568E+02   1.3691821E+04
         3        27        35   9.7910248E+02   1.3234259E+04
         3        26        35   9.7664075E+02   1.1774766E+04
         3        25        34   9.7010754E+02   1.2220738E+04
         3        24        33   9.6357440E+02   1.2699316E+04
         3        23        31   9.5296985E+02   1.4983164E+04
         3        23        32   9.5704120E+02   1.2970037E+04
         3        22        30   9.4643665E+02   1.5210698E+04
         3        21        28   9.3583209E+02   1.7385949E+04
         3        21        29   9.3990350E+02   1.5180595E+04
         3        20        24   9.1708478E+02   1.9728615E+04
         3        20        25   9.2115613E+02   1.8369488E+04
         3        20        26   9.2522754E+02   1.7414676E+04
         3        20        27   9.2929895E+02   1.6042925E+04
         3        19        22   9.0648016E+02   2.0133523E+04
         3        19        23   9.1055157E+02   1.7926480E+04
         3        18        20   8.9587561E+02   2.0570395E+04
         3        18        21   8.9994702E+02   1.8338770E+04
         3        17        17   8.8119965E+02   2.2755129E+04
         3        17        18   8.8527106E+02   2.0883535E+04
         3        17        19   8.8934247E+02   1.8590172E+04
         3        16         6   8.3395258E+02   2.6190820E+04
         3        16         7   8.3802399E+02   2.4716672E+04
         3        16         8   8.4209534E+02   2.4345191E+04
         3        16         9   8.4616675E+02   2.4296734E+04
         3        16        10   8.5023816E+02   2.4266109E+04
         3        16        11   8.5430951E+02   2.4152336E+04
         3        16        12   8.5838092E+02   2.3908553E+04
         3        16        13   8.6245233E+02   2.3526168E+04
         3        16        14   8.6652374E+02   2.3011281E+04
         3        16        15   8.7059509E+02   2.2221012E+04
         3        16        16   8.7466650E+02   2.0484678E+04
         3        15         5   8.2741937E+02   2.3836943E+04
         3        14         4   8.2088623E+02   2.0625641E+04
         1       130       194   2.5606055E+03   9.3139697E+03
         1       129       195   2.5454805E+03   9.3180908E+03
         1       128       195   2.5325161E+03   9.1645107E+03
         1       127       194   2.5217124E+03   8.5975703E+03
         1       126       193   2.5109089E+03   7.8824600E+03
         1       125       193   2.4979446E+03   7.6454893E+03
         1       124       193   2.4849802E+03   7.5571997E+03
         1       123       194   2.4698552E+03   8.3148613E+03
         1       122       193   2.4590515E+03   7.8204688E+03
         1       122       194   2.4568909E+03   8.3962500E+03
         1       121       192   2.4482480E+03   7.2976099E+03
         1       120       192   2.4352837E+03   7.3781494E+03
         1       119       192   2.4223193E+03   7.5500806E+03
         1       118       191   2.4115159E+03   7.1204795E+03
         1       117       191   2.3985515E+03   7.3449097E+03
         1       116       190   2.3877478E+03   6.8451992E+03
         1       115       190   2.3747834E+03   7.0212100E+03
         1       114       190   2.3618191E+03   7.0743711E+03
         1       113       190   2.3488550E+03   7.1795190E+03
         1       112       190   2.3358906E+03   7.7199912E+03
         1       111       190   2.3229263E+03   8.2412988E+03
         1       110       190   2.3099619E+03   8.7283896E+03
         1       109       190   2.2969976E+03   9.1062803E+03
         1       108       189   2.2861941E+03   9.0055000E+03
         1       107       190   2.2710688E+03   9.8573086E+03
         1       106       190   2.2581045E+03   9.9772500E+03
         1       105       190   2.2451404E+03   1.0189350E+04
         1       104       191   2.2300151E+03   1.0819281E+04
         1       103       192   2.2148901E+03   1.1314419E+04
         1       102       193   2.1997651E+03   1.1812990E+04
         1       101       194   2.1846401E+03   1.2308931E+04
         1       100       195   2.1695151E+03   1.2754659E+04
         1        99       196   2.1543901E+03   1.3042420E+04
         1        98       196   2.1414258E+03   1.3006339E+04
         1        97       197   2.1263008E+03   1.3151459E+04
         1        96       198   2.1111755E+03   1.3250790E+04
         1        95       199   2.0960505E+03   1.3326401E+04
         1        94       200   2.0809255E+03   1.3380189E+04
         2       130       194   2.5606055E+03   1.4406299E+03
         2       129       195   2.5454805E+03   1.4646802E+03
         2       128       195   2.5325161E+03   1.4580591E+03
         2       127       194   2.5217124E+03   1.4416907E+03