# MNW2 package for  MODFLOW-NWT, generated by Flopy.
233 1 1
02f -1
            skin 0 0 1 0
               1.0000000E+00    1.2500000E+01    3.1250000E+01
               2.1515630E+03    1.9615630E+03 44 137
02l -1
            skin 0 0 1 0
               1.0000000E+00    1.2500000E+01    3.1250000E+01
               2.1367610E+03    1.9467610E+03 47 137
08k -1
            skin 0 0 1 0
               1.0000000E+00    1.2500000E+01    3.1250000E+01
               1.5780360E+03    1.2380360E+03 58 108
08l -1
            skin 0 0 1 0
               1.0000000E+00    1.2500000E+01    3.1250000E+01
               1.5790520E+03    1.2390520E+03 58 105
08l01 -1
            skin 0 0 1 0
               1.0000000E+00    1.2500000E+01    3.1250000E+01
               1.5790520E+03    1.2390520E+03 58 105
08r -1
            skin 0 0 1 0
               1.0000000E+00    1.2500000E+01    3.1250000E+01
               1.6948350E+03    1.3548350E+03 61 110
09b -1
            skin 0 0 1 0
               1.0000000E+00    1.2500000E+01    3.1250000E+01
               1.4415439E+03    4.5654395E+02 53 119
09m -1
            skin 0 0 1 0
               1.0000000E+00    1.2500000E+01    3.1250000E+01
               1.7103180E+03    1.3703180E+03 58 113
10h01 -1
            skin 0 0 1 0
               1.0000000E+00    1.2500000E+01    3.1250000E+01
               2.0425129E+03    1.4845129E+03 56 132
10k01 -1
            skin 0 0 1 0
               1.0000000E+00    1.2500000E+01    3.1250000E+01
               2.1112981E+03    1.7812981E+03 58 128
14l -1
            skin 0 0 1 0
               1.0000000E+00    1.2500000E+01    3.1250000E+01
               1.9783120E+03    1.3543120E+03 69 137
14na -1
            skin 0 0 1 0
               1.0000000E+00    1.2500000E+01    3.1250000E+01
               1.8879719E+03    1.2639719E+03 71 134
14nb -1
            skin 0 0 1 0
               1.0000000E+00    1.2500000E+01    3.1250000E+01
               1.8879719E+03    1.2639719E+03 71 134
18f -1
            skin 0 0 1 0
               1.0000000E+00    1.2500000E+01    3.1250000E+01
               2.4124900E+03    1.9527100E+03 66 159
18m -1
            skin 0 0 1 0
               1.0000000E+00    1.2500000E+01    3.1250000E+01
               2.2420310E+03    1.6180310E+03 69 156
20f -1
            skin 0 0 1 0
               1.0000000E+00    1.2500000E+01    3.1250000E+01
               3.1756890E+03    2.9966890E+03 12 169
21m -1
            skin 0 0 1 0
               1.0000000E+00    1.2500000E+01    3.1250000E+01
               3.5628320E+03    3.5190569E+03 14 177
21p -1
            skin 0 0 1 0
               1.0000000E+00    1.2500000E+01    3.1250000E+01
               3.6774490E+03    3.6034490E+03 17 180
21r -1
            skin 0 0 1 0
               1.0000000E+00    1.2500000E+01    3.1250000E+01
               3.9767991E+03    3.9027991E+03 17 185
22a -1
            skin 0 0 1 0
               1.0000000E+00    1.2500000E+01    3.1250000E+01
               5.9051401E+03    5.8311401E+03 9 196
25f -1
            skin 0 0 1 0
               1.0000000E+00    1.2500000E+01    3.1250000E+01
               2.5594441E+03    2.1256001E+03 23 148
25h -1
            skin 0 0 1 0
               1.0000000E+00    1.2500000E+01    3.1250000E+01
               2.5785200E+03    2.3725200E+03 23 153
25m02 -1
            skin 0 0 1 0
               1.0000000E+00    1.2500000E+01    3.1250000E+01
               2.5177930E+03    2.1204600E+03 25 146
26n -1
            skin 0 0 1 0
               1.0000000E+00    1.2500000E+01    3.1250000E+01
               4.2545400E+03    4.1805400E+03 27 199
26p -1
            skin 0 0 1 0
               1.0000000E+00    1.2500000E+01    3.1250000E+01
               4.4197920E+03    4.3457920E+03 27 202
26p01 -1
            skin 0 0 1 0
               1.0000000E+00    1.2500000E+01    3.1250000E+01
               4.3730459E+03    4.2990459E+03 28 201
28a -1
            skin 0 0 1 0
               1.0000000E+00    1.2500000E+01    3.1250000E+01
               3.6543140E+03    3.5803140E+03 20 186
28e01 -1
            skin 0 0 1 0
               1.0000000E+00    1.2500000E+01    3.1250000E+01
               3.2626360E+03    3.0113181E+03 23 176
34q -1
            skin 0 0 1 0
               1.0000000E+00    1.2500000E+01    3.1250000E+01
               1.6682308E+03    9.0377289E+02 39 129
35a1 -1
            skin 0 0 1 0
               1.0000000E+00    1.2500000E+01    3.1250000E+01
               4.7720449E+03    4.6980449E+03 30 207
36c02 -1
            skin 0 0 1 0
               1.0000000E+00    1.2500000E+01    3.1250000E+01
               2.2433582E+03    1.7548110E+03 31 148
backcanyon -1
            skin 0 0 1 0
               1.0000000E+00    1.2500000E+01    3.1250000E+01
               4.0680981E+03    3.9940981E+03 27 193
bauman -1
            skin 0 0 1 0
               1.0000000E+00    1.2500000E+01    3.1250000E+01
               4.1372520E+03    4.0632520E+03 27 196
bea_1_100_166 -1
            skin 0 0 1 0
               1.0000000E+00    1.2500000E+01    3.1250000E+01
               2.4416819E+03    1.9258180E+03 101 167
bea_1_100_179 -1
            skin 0 0 1 0
               1.0000000E+00    1.2500000E+01    3.1250000E+01
               2.5678660E+03    1.8600780E+03 101 180
bea_1_101_156 -1
            skin 0 0 1 0
               1.0000000E+00    1.2500000E+01    3.1250000E+01
               2.4049141E+03    2.1385100E+03 102 157
bea_1_110_180 -1
            skin 0 0 1 0
               1.0000000E+00    1.2500000E+01    3.1250000E+01
               2.5657971E+03    2.1422610E+03 111 181
bea_1_113_183 -1
            skin 0 0 1 0
               1.0000000E+00    1.2500000E+01    3.1250000E+01
               2.5763020E+03    2.2437830E+03 114 184
bea_1_123_183 -1
            skin 0 0 1 0
               1.0000000E+00    1.2500000E+01    3.1250000E+01
               2.5485449E+03    2.4287390E+03 124 184
bea_1_124_184 -1
            skin 0 0 1 0
               1.0000000E+00    1.2500000E+01    3.1250000E+01
               2.5429399E+03    2.3675330E+03 125 185
bea_1_71_140 -1
            skin 0 0 1 0
               1.0000000E+00    1.2500000E+01    3.1250000E+01
               2.3599780E+03    1.6680649E+03 72 141
bea_1_72_141 -1
            skin 0 0 1 0
               1.0000000E+00    1.2500000E+01    3.1250000E+01
               2.3387920E+03    1.6468790E+03 73 142
bea_1_72_144 -1
            skin 0 0 1 0
               1.0000000E+00    1.2500000E+01    3.1250000E+01
               2.4132051E+03    1.7212920E+03 73 145
bea_1_73_137 -1
            skin 0 0 1 0
               1.0000000E+00    1.2500000E+01    3.1250000E+01
               2.2835640E+03    1.3997209E+03 74 138
bea_1_75_137 -1
            skin 0 0 1 0
               1.0000000E+00    1.2500000E+01    3.1250000E+01
               2.3174939E+03    1.4336510E+03 76 138
bea_1_75_144 -1
            skin 0 0 1 0
               1.0000000E+00    1.2500000E+01    3.1250000E+01
               2.3514460E+03    1.8429250E+03 76 145
bea_1_76_144 -1
            skin 0 0 1 0
               1.0000000E+00    1.2500000E+01    3.1250000E+01
               2.3258850E+03    1.8110220E+03 77 145
bea_1_78_138 -1
            skin 0 0 1 0
               1.0000000E+00    1.2500000E+01    3.1250000E+01
               2.2856121E+03    1.6519690E+03 79 139
bea_1_79_146 -1
            skin 0 0 1 0
               1.0000000E+00    1.2500000E+01    3.1250000E+01
               2.3167300E+03    1.8004800E+03 80 147
bea_1_80_142 -1
            skin 0 0 1 0
               1.0000000E+00    1.2500000E+01    3.1250000E+01
               2.2536089E+03    1.6903860E+03 81 143
bea_1_82_142 -1
            skin 0 0 1 0
               1.0000000E+00    1.2500000E+01    3.1250000E+01
               2.2411589E+03    1.6869980E+03 83 143
bea_1_82_148 -1
            skin 0 0 1 0
               1.0000000E+00    1.2500000E+01    3.1250000E+01
               2.2986440E+03    1.7619440E+03 83 149
bea_1_83_143 -1
            skin 0 0 1 0
               1.0000000E+00    1.2500000E+01    3.1250000E+01
               2.2455720E+03    1.6979091E+03 84 144
bea_1_83_144 -1
            skin 0 0 1 0
               1.0000000E+00    1.2500000E+01    3.1250000E+01
               2.2660720E+03    1.7075240E+03 84 145
bea_1_83_145 -1
            skin 0 0 1 0
               1.0000000E+00    1.2500000E+01    3.1250000E+01
               2.2717720E+03    1.7131169E+03 84 146
bea_1_84_142 -1
            skin 0 0 1 0
               1.0000000E+00    1.2500000E+01    3.1250000E+01
               2.2220300E+03    1.7203190E+03 85 143
bea_1_84_143 -1
            skin 0 0 1 0
               1.0000000E+00    1.2500000E+01    3.1250000E+01
               2.2330920E+03    1.7092629E+03 85 144
bea_1_85_147 -1
            skin 0 0 1 0
               1.0000000E+00    1.2500000E+01    3.1250000E+01
               2.2711189E+03    1.7435240E+03 86 148
bea_1_85_148 -1
            skin 0 0 1 0
               1.0000000E+00    1.2500000E+01    3.1250000E+01
               2.2751289E+03    1.7586150E+03 86 149
bea_1_86_149 -1
            skin 0 0 1 0
               1.0000000E+00    1.2500000E+01    3.1250000E+01
               2.2874331E+03    1.7979530E+03 87 150
bea_1_88_164 -1
            skin 0 0 1 0
               1.0000000E+00    1.2500000E+01    3.1250000E+01
               2.5376011E+03    1.8825520E+03 89 165
bea_1_93_191 -1
            skin 0 0 1 0
               1.0000000E+00    1.2500000E+01    3.1250000E+01
               2.7305801E+03    1.8467380E+03 94 192
bea_1_94_148 -1
            skin 0 0 1 0
               1.0000000E+00    1.2500000E+01    3.1250000E+01
               2.2965259E+03    1.8664180E+03 95 149
bea_1_94_176 -1
            skin 0 0 1 0
               1.0000000E+00    1.2500000E+01    3.1250000E+01
               2.6053501E+03    1.8506520E+03 95 177
bea_1_99_177 -1
            skin 0 0 1 0
               1.0000000E+00    1.2500000E+01    3.1250000E+01
               2.5630769E+03    1.8648450E+03 100 178
bea_2_113_183 -1
            skin 0 0 1 0
               1.0000000E+00    1.2500000E+01    3.1250000E+01
               2.2427830E+03    2.1319290E+03 114 184
bea_2_116_177 -1
            skin 0 0 1 0
               1.0000000E+00    1.2500000E+01    3.1250000E+01
               2.3444470E+03    2.2912009E+03 117 178
bea_2_116_180 -1
            skin 0 0 1 0
               1.0000000E+00    1.2500000E+01    3.1250000E+01
               2.3380911E+03    2.2729729E+03 117 181
bea_2_71_140 -1
            skin 0 0 1 0
               1.0000000E+00    1.2500000E+01    3.1250000E+01
               1.6670649E+03    1.4761350E+03 72 141
bea_2_82_110 -1
            skin 0 0 1 0
               1.0000000E+00    1.2500000E+01    3.1250000E+01
               1.6025370E+03    1.4814580E+03 83 111
bea_2_84_194 -1
            skin 0 0 1 0
               1.0000000E+00    1.2500000E+01    3.1250000E+01
               1.9929850E+03    1.7918199E+03 85 195
bea_3_100_166 -1
            skin 0 0 1 0
               1.0000000E+00    1.2500000E+01    3.1250000E+01
               1.7098700E+03    1.4959230E+03 101 167
bea_3_100_179 -1
            skin 0 0 1 0
               1.0000000E+00    1.2500000E+01    3.1250000E+01
               1.6145280E+03    1.3709780E+03 101 180
bea_3_101_156 -1
            skin 0 0 1 0
               1.0000000E+00    1.2500000E+01    3.1250000E+01
               2.0303571E+03    1.9242030E+03 102 157
bea_3_110_180 -1
            skin 0 0 1 0
               1.0000000E+00    1.2500000E+01    3.1250000E+01
               2.0013400E+03    1.8624200E+03 111 181
bea_3_72_144 -1
            skin 0 0 1 0
               1.0000000E+00    1.2500000E+01    3.1250000E+01
               1.5283630E+03    1.3230310E+03 73 145
bea_3_75_144 -1
            skin 0 0 1 0
               1.0000000E+00    1.2500000E+01    3.1250000E+01
               1.5871650E+03    1.3334041E+03 76 145
bea_3_76_144 -1
            skin 0 0 1 0
               1.0000000E+00    1.2500000E+01    3.1250000E+01
               1.5684950E+03    1.3279670E+03 77 145
bea_3_80_148 -1
            skin 0 0 1 0
               1.0000000E+00    1.2500000E+01    3.1250000E+01
               1.5878610E+03    1.3601450E+03 81 149
bea_3_80_149 -1
            skin 0 0 1 0
               1.0000000E+00    1.2500000E+01    3.1250000E+01
               1.6154810E+03    1.4016710E+03 81 150
bea_3_81_106 -1
            skin 0 0 1 0
               1.0000000E+00    1.2500000E+01    3.1250000E+01
               1.4785050E+03    1.3659510E+03 82 107
bea_3_82_110 -1
            skin 0 0 1 0
               1.0000000E+00    1.2500000E+01    3.1250000E+01
               1.4804580E+03    1.3593790E+03 83 111
bea_3_82_148 -1
            skin 0 0 1 0
               1.0000000E+00    1.2500000E+01    3.1250000E+01
               1.5251740E+03    1.2904041E+03 83 149
bea_3_83_144 -1
            skin 0 0 1 0
               1.0000000E+00    1.2500000E+01    3.1250000E+01
               1.4431541E+03    1.1807841E+03 84 145
bea_3_83_154 -1
            skin 0 0 1 0
               1.0000000E+00    1.2500000E+01    3.1250000E+01
               1.5678270E+03    1.3246760E+03 84 155
bea_3_84_150 -1
            skin 0 0 1 0
               1.0000000E+00    1.2500000E+01    3.1250000E+01
               1.5802000E+03    1.3696370E+03 85 151
bea_3_84_151 -1
            skin 0 0 1 0
               1.0000000E+00    1.2500000E+01    3.1250000E+01
               1.6072209E+03    1.4014821E+03 85 152
bea_3_85_147 -1
            skin 0 0 1 0
               1.0000000E+00    1.2500000E+01    3.1250000E+01
               1.5083370E+03    1.2751490E+03 86 148
bea_3_85_148 -1
            skin 0 0 1 0
               1.0000000E+00    1.2500000E+01    3.1250000E+01
               1.5287780E+03    1.3009410E+03 86 149
bea_3_85_151 -1
            skin 0 0 1 0
               1.0000000E+00    1.2500000E+01    3.1250000E+01
               1.6061110E+03    1.3945380E+03 86 152
bea_3_86_149 -1
            skin 0 0 1 0
               1.0000000E+00    1.2500000E+01    3.1250000E+01
               1.5779110E+03    1.3598680E+03 87 150
bea_3_86_153 -1
            skin 0 0 1 0
               1.0000000E+00    1.2500000E+01    3.1250000E+01
               1.6220439E+03    1.4003020E+03 87 154
bea_3_87_166 -1
            skin 0 0 1 0
               1.0000000E+00    1.2500000E+01    3.1250000E+01
               1.4726110E+03    1.1704580E+03 88 167
bea_3_88_164 -1
            skin 0 0 1 0
               1.0000000E+00    1.2500000E+01    3.1250000E+01
               1.5812820E+03    1.2820120E+03 89 165
bea_3_88_166 -1
            skin 0 0 1 0
               1.0000000E+00    1.2500000E+01    3.1250000E+01
               1.4815520E+03    1.2060740E+03 89 167
bea_3_88_168 -1
            skin 0 0 1 0
               1.0000000E+00    1.2500000E+01    3.1250000E+01
               1.5141110E+03    1.2762860E+03 89 169
bea_3_90_157 -1
            skin 0 0 1 0
               1.0000000E+00    1.2500000E+01    3.1250000E+01
               1.5863090E+03    1.3290170E+03 91 158
bea_3_91_166 -1
            skin 0 0 1 0
               1.0000000E+00    1.2500000E+01    3.1250000E+01
               1.5830350E+03    1.2959370E+03 92 167
bea_3_91_174 -1
            skin 0 0 1 0
               1.0000000E+00    1.2500000E+01    3.1250000E+01
               1.6215570E+03    1.3635880E+03 92 175
bea_3_92_155 -1
            skin 0 0 1 0
               1.0000000E+00    1.2500000E+01    3.1250000E+01
               1.5634590E+03    1.2970940E+03 93 156
bea_3_92_156 -1
            skin 0 0 1 0
               1.0000000E+00    1.2500000E+01    3.1250000E+01
               1.5658270E+03    1.2964780E+03 93 157
bea_3_92_166 -1
            skin 0 0 1 0
               1.0000000E+00    1.2500000E+01    3.1250000E+01
               1.5617100E+03    1.2731550E+03 93 167
bea_3_93_191 -1
            skin 0 0 1 0
               1.0000000E+00    1.2500000E+01    3.1250000E+01
               1.6435720E+03    1.1769690E+03 94 192
bea_3_94_156 -1
            skin 0 0 1 0
               1.0000000E+00    1.2500000E+01    3.1250000E+01
               1.5264530E+03    1.2460160E+03 95 157
bea_3_94_176 -1
            skin 0 0 1 0
               1.0000000E+00    1.2500000E+01    3.1250000E+01
               1.5993320E+03    1.3500120E+03 95 177
bea_3_94_196 -1
            skin 0 0 1 0
               1.0000000E+00    1.2500000E+01    3.1250000E+01
               1.6566150E+03    1.2820540E+03 95 197
bea_3_98_188 -1
            skin 0 0 1 0
               1.0000000E+00    1.2500000E+01    3.1250000E+01
               1.5655990E+03    1.3240970E+03 99 189
bea_3_99_177 -1
            skin 0 0 1 0
               1.0000000E+00    1.2500000E+01    3.1250000E+01
               1.6275031E+03    1.3921610E+03 100 178
birchcreek -1
            skin 0 0 1 0
               1.0000000E+00    1.2500000E+01    3.1250000E+01
               4.2689849E+03    4.1949849E+03 25 199
chapman2 -1
            skin 0 0 1 0
               1.0000000E+00    1.2500000E+01    3.1250000E+01
               2.0861599E+03    1.5610270E+03 33 144
chapman4 -1
            skin 0 0 1 0
               1.0000000E+00    1.2500000E+01    3.1250000E+01
               2.1534500E+03    1.8993040E+03 30 148
chickenhillno.4 -1
            skin 0 0 1 0
               1.0000000E+00    1.2500000E+01    3.1250000E+01
               2.0046399E+03    1.7176399E+03 47 127
craftonhills -1
            skin 0 0 1 0
               1.0000000E+00    1.2500000E+01    3.1250000E+01
               1.4962029E+03    5.1120288E+02 40 126
hogcanyonno.1 -1
            skin 0 0 1 0
               1.0000000E+00    1.2500000E+01    3.1250000E+01
               2.0772788E+03    1.7460288E+03 53 129
hogcanyonno.2 -1
            skin 0 0 1 0
               1.0000000E+00    1.2500000E+01    3.1250000E+01
               2.0771968E+03    1.7459468E+03 52 126
lower2 -1
            skin 0 0 1 0
               1.0000000E+00    1.2500000E+01    3.1250000E+01
               3.3434170E+03    3.0778330E+03 30 178
oakglencreek -1
            skin 0 0 1 0
               1.0000000E+00    1.2500000E+01    3.1250000E+01
               4.8533140E+03    4.7793140E+03 28 209
potato -1
            skin 0 0 1 0
               1.0000000E+00    1.2500000E+01    3.1250000E+01
               4.1205801E+03    4.0465801E+03 25 196
rch_0 -1
            skin 0 0 1 0
               1.0000000E+00    1.2500000E+01    3.1250000E+01
               2.7690149E+03    2.3671970E+03 33 155
rch_1 -1
            skin 0 0 1 0
               1.0000000E+00    1.2500000E+01    3.1250000E+01
               2.7897810E+03    2.4347710E+03 33 156
rch_10 -1
            skin 0 0 1 0
               1.0000000E+00    1.2500000E+01    3.1250000E+01
               2.8008010E+03    2.2758291E+03 28 155
rch_11 -1
            skin 0 0 1 0
               1.0000000E+00    1.2500000E+01    3.1250000E+01
               2.8235710E+03    2.2835449E+03 28 156
rch_12 -1
            skin 0 0 1 0
               1.0000000E+00    1.2500000E+01    3.1250000E+01
               2.8499910E+03    2.3099651E+03 28 157
rch_13 -1
            skin 0 0 1 0
               1.0000000E+00    1.2500000E+01    3.1250000E+01
               2.8750769E+03    2.3350510E+03 28 158
rch_14 -1
            skin 0 0 1 0
               1.0000000E+00    1.2500000E+01    3.1250000E+01
               2.8942300E+03    2.4146440E+03 28 159
rch_15 -1
            skin 0 0 1 0
               1.0000000E+00    1.2500000E+01    3.1250000E+01
               2.9113440E+03    2.4772500E+03 28 160
rch_16 -1
            skin 0 0 1 0
               1.0000000E+00    1.2500000E+01    3.1250000E+01
               2.8374519E+03    2.3164951E+03 27 156
rch_17 -1
            skin 0 0 1 0
               1.0000000E+00    1.2500000E+01    3.1250000E+01
               2.8451860E+03    2.3141460E+03 27 157
rch_18 -1
            skin 0 0 1 0
               1.0000000E+00    1.2500000E+01    3.1250000E+01
               2.8755691E+03    2.3355430E+03 27 158
rch_2 -1
            skin 0 0 1 0
               1.0000000E+00    1.2500000E+01    3.1250000E+01
               2.8026931E+03    2.5025740E+03 33 157
rch_29.0_149.0 -1
            skin 0 0 1 0
               1.0000000E+00    1.2500000E+01    3.1250000E+01
               2.6815239E+03    2.1605471E+03 30 150
rch_29.0_150.0 -1
            skin 0 0 1 0
               1.0000000E+00    1.2500000E+01    3.1250000E+01
               2.6978550E+03    2.1502461E+03 30 151
rch_3 -1
            skin 0 0 1 0
               1.0000000E+00    1.2500000E+01    3.1250000E+01
               2.8332791E+03    2.5764690E+03 33 158
rch_30.0_147.0 -1
            skin 0 0 1 0
               1.0000000E+00    1.2500000E+01    3.1250000E+01
               2.6321870E+03    2.1196890E+03 31 148
rch_30.0_148.0 -1
            skin 0 0 1 0
               1.0000000E+00    1.2500000E+01    3.1250000E+01
               2.6508120E+03    2.0720581E+03 31 149
rch_30.0_149.0 -1
            skin 0 0 1 0
               1.0000000E+00    1.2500000E+01    3.1250000E+01
               2.6669880E+03    2.0742671E+03 31 150
rch_30.0_150.0 -1
            skin 0 0 1 0
               1.0000000E+00    1.2500000E+01    3.1250000E+01
               2.6840220E+03    2.0831011E+03 31 151
rch_31.0_147.0 -1
            skin 0 0 1 0
               1.0000000E+00    1.2500000E+01    3.1250000E+01
               2.6164009E+03    2.0429950E+03 32 148
rch_31.0_148.0 -1
            skin 0 0 1 0
               1.0000000E+00    1.2500000E+01    3.1250000E+01
               2.6348789E+03    2.0202400E+03 32 149
rch_31.0_149.0 -1
            skin 0 0 1 0
               1.0000000E+00    1.2500000E+01    3.1250000E+01
               2.6489829E+03    2.0287430E+03 32 150
rch_31.0_150.0 -1
            skin 0 0 1 0
               1.0000000E+00    1.2500000E+01    3.1250000E+01
               2.6726201E+03    2.1335940E+03 32 151
rch_32.0_147.0 -1
            skin 0 0 1 0
               1.0000000E+00    1.2500000E+01    3.1250000E+01
               2.5989609E+03    2.0050310E+03 33 148
rch_32.0_148.0 -1
            skin 0 0 1 0
               1.0000000E+00    1.2500000E+01    3.1250000E+01
               2.6160039E+03    2.0769780E+03 33 149
rch_32.0_149.0 -1
            skin 0 0 1 0
               1.0000000E+00    1.2500000E+01    3.1250000E+01
               2.6383459E+03    2.0993201E+03 33 150
rch_32.0_150.0 -1
            skin 0 0 1 0
               1.0000000E+00    1.2500000E+01    3.1250000E+01
               2.6617910E+03    2.1227649E+03 33 151
rch_33.0_147.0 -1
            skin 0 0 1 0
               1.0000000E+00    1.2500000E+01    3.1250000E+01
               2.5965310E+03    2.0575049E+03 34 148
rch_33.0_148.0 -1
            skin 0 0 1 0
               1.0000000E+00    1.2500000E+01    3.1250000E+01
               2.6253911E+03    2.0863650E+03 34 149
rch_33.0_149.0 -1
            skin 0 0 1 0
               1.0000000E+00    1.2500000E+01    3.1250000E+01
               2.6493721E+03    2.1103459E+03 34 150
rch_33.0_150.0 -1
            skin 0 0 1 0
               1.0000000E+00    1.2500000E+01    3.1250000E+01
               2.6815491E+03    2.1425229E+03 34 151
rch_4 -1
            skin 0 0 1 0
               1.0000000E+00    1.2500000E+01    3.1250000E+01
               2.7502361E+03    2.3101680E+03 32 155
rch_5 -1
            skin 0 0 1 0
               1.0000000E+00    1.2500000E+01    3.1250000E+01
               2.7756121E+03    2.3768601E+03 32 156
rch_6 -1
            skin 0 0 1 0
               1.0000000E+00    1.2500000E+01    3.1250000E+01
               2.8035171E+03    2.4457720E+03 32 157
rch_7 -1
            skin 0 0 1 0
               1.0000000E+00    1.2500000E+01    3.1250000E+01
               2.8272290E+03    2.5142600E+03 32 158
rch_8 -1
            skin 0 0 1 0
               1.0000000E+00    1.2500000E+01    3.1250000E+01
               2.8195969E+03    2.2795710E+03 29 156
rch_9 -1
            skin 0 0 1 0
               1.0000000E+00    1.2500000E+01    3.1250000E+01
               2.8476689E+03    2.3076431E+03 29 157
smwc1 -1
            skin 0 0 1 0
               1.0000000E+00    1.2500000E+01    3.1250000E+01
               2.0636799E+03    1.4396799E+03 69 141
smwc12 -1
            skin 0 0 1 0
               1.0000000E+00    1.2500000E+01    3.1250000E+01
               2.1217419E+03    1.5637419E+03 59 136
smwc14 -1
            skin 0 0 1 0
               1.0000000E+00    1.2500000E+01    3.1250000E+01
               2.1616560E+03    1.6036560E+03 63 139
smwc15 -1
            skin 0 0 1 0
               1.0000000E+00    1.2500000E+01    3.1250000E+01
               2.1379409E+03    1.4029409E+03 66 137
smwc16 -1
            skin 0 0 1 0
               1.0000000E+00    1.2500000E+01    3.1250000E+01
               2.3646221E+03    1.3796221E+03 64 135
smwc17 -1
            skin 0 0 1 0
               1.0000000E+00    1.2500000E+01    3.1250000E+01
               2.0638899E+03    1.5058899E+03 56 134
smwc211 -1
            skin 0 0 1 0
               1.0000000E+00    1.2500000E+01    3.1250000E+01
               2.1808750E+03    2.0228750E+03 62 137
smwc4 -1
            skin 0 0 1 0
               1.0000000E+00    1.2500000E+01    3.1250000E+01
               1.9997317E+03    1.4062988E+03 73 142
smwc5 -1
            skin 0 0 1 0
               1.0000000E+00    1.2500000E+01    3.1250000E+01
               1.9683899E+03    1.3443899E+03 68 133
smwc6 -1
            skin 0 0 1 0
               1.0000000E+00    1.2500000E+01    3.1250000E+01
               2.2180549E+03    1.6600549E+03 57 144
smwc7 -1
            skin 0 0 1 0
               1.0000000E+00    1.2500000E+01    3.1250000E+01
               2.1106091E+03    1.4627883E+03 65 130
smwc9 -1
            skin 0 0 1 0
               1.0000000E+00    1.2500000E+01    3.1250000E+01
               2.0762490E+03    1.3447891E+03 63 133
whwc1 -1
            skin 0 0 1 0
               1.0000000E+00    1.2500000E+01    3.1250000E+01
               1.7459056E+03    1.4819144E+03 43 115
whwc11 -1
            skin 0 0 1 0
               1.0000000E+00    1.2500000E+01    3.1250000E+01
               1.3866580E+03    4.0165796E+02 45 118
whwc12 -1
            skin 0 0 1 0
               1.0000000E+00    1.2500000E+01    3.1250000E+01
               1.3975161E+03    4.1251611E+02 46 121
whwc14 -1
            skin 0 0 1 0
               1.0000000E+00    1.2500000E+01    3.1250000E+01
               2.0462451E+03    1.5312451E+03 47 115
whwc2 -1
            skin 0 0 1 0
               1.0000000E+00    1.2500000E+01    3.1250000E+01
               1.3983391E+03    4.1333911E+02 44 119
whwc2a -1
            skin 0 0 1 0
               1.0000000E+00    1.2500000E+01    3.1250000E+01
               1.4843331E+03    7.2790021E+02 44 118
whwc3 -1
            skin 0 0 1 0
               1.0000000E+00    1.2500000E+01    3.1250000E+01
               1.3866580E+03    4.0165796E+02 45 118
whwc4 -1
            skin 0 0 1 0
               1.0000000E+00    1.2500000E+01    3.1250000E+01
               2.0555530E+03    1.5405530E+03 46 116
whwc5 -1
            skin 0 0 1 0
               1.0000000E+00    1.2500000E+01    3.1250000E+01
               1.3763301E+03    3.9133008E+02 47 119
whwc5a -1
            skin 0 0 1 0
               1.0000000E+00    1.2500000E+01    3.1250000E+01
               1.3975161E+03    4.1251611E+02 46 121
whwc6 -1
            skin 0 0 1 0
               1.0000000E+00    1.2500000E+01    3.1250000E+01
               1.4673149E+03    4.8231494E+02 43 125
whwc9 -1
            skin 0 0 1 0
               1.0000000E+00    1.2500000E+01    3.1250000E+01
               1.3966680E+03    4.1166797E+02 48 122
wildmesa -1
            skin 0 0 1 0
               1.0000000E+00    1.2500000E+01    3.1250000E+01
               2.6825239E+03    2.5325239E+03 53 167
wildtnnl -1
            skin 0 0 1 0
               1.0000000E+00    1.2500000E+01    3.1250000E+01
               2.8383889E+03    2.6883889E+03 53 175
wildwood -1
            skin 0 0 1 0
               1.0000000E+00    1.2500000E+01    3.1250000E+01
               2.6825239E+03    2.5325239E+03 53 167
worthington -1
            skin 0 0 1 0
               1.0000000E+00    1.2500000E+01    3.1250000E+01
               4.0680981E+03    3.9940981E+03 27 193
yucaipablvd3 -1
            skin 0 0 1 0
               1.0000000E+00    1.2500000E+01    3.1250000E+01
               1.4546870E+03    4.6968701E+02 40 123
yvwd01 -1
            skin 0 0 1 0
               1.0000000E+00    1.2500000E+01    3.1250000E+01
               2.5521296E+03    2.2918440E+03 20 153
yvwd02 -1
            skin 0 0 1 0
               1.0000000E+00    1.2500000E+01    3.1250000E+01
               2.0576250E+03    1.7946250E+03 54 140
yvwd03 -1
            skin 0 0 1 0
               1.0000000E+00    1.2500000E+01    3.1250000E+01
               2.3263411E+03    1.9163411E+03 39 143
yvwd04 -1
            skin 0 0 1 0
               1.0000000E+00    1.2500000E+01    3.1250000E+01
               2.2281609E+03    1.7371609E+03 50 133
yvwd05 -1
            skin 0 0 1 0
               1.0000000E+00    1.2500000E+01    3.1250000E+01
               2.3632581E+03    1.9532581E+03 38 145
yvwd06 -1
            skin 0 0 1 0
               1.0000000E+00    1.2500000E+01    3.1250000E+01
               2.2388889E+03    1.9934850E+03 46 148
yvwd07 -1
            skin 0 0 1 0
               1.0000000E+00    1.2500000E+01    3.1250000E+01
               2.5184839E+03    2.1400200E+03 38 153
yvwd08 -1
            skin 0 0 1 0
               1.0000000E+00    1.2500000E+01    3.1250000E+01
               1.8859861E+03    1.1859861E+03 43 133
yvwd09 -1
            skin 0 0 1 0
               1.0000000E+00    1.2500000E+01    3.1250000E+01
               2.5050500E+03    2.0762400E+03 26 146
yvwd10 -1
            skin 0 0 1 0
               1.0000000E+00    1.2500000E+01    3.1250000E+01
               2.1213652E+03    1.6879209E+03 54 133
yvwd11 -1
            skin 0 0 1 0