# HFB6 package for  MODFLOW-NWT, generated by Flopy.
         0         0      2972
         1        68       187        67       187  4.58487e-05
         2        68       187        67       187  4.58487e-05
         3        68       187        67       187  4.58487e-05
         4        68       187        67       187  4.58487e-05
         1        68       188        68       187  4.58487e-05
         2        68       188        68       187  4.58487e-05
         3        68       188        68       187  4.58487e-05
         4        68       188        68       187  4.58487e-05
         1        69       188        68       188  4.58487e-05
         2        69       188        68       188  4.58487e-05
         3        69       188        68       188  4.58487e-05
         4        69       188        68       188  4.58487e-05
         1        69       189        69       188  4.58487e-05
         2        69       189        69       188  4.58487e-05
         3        69       189        69       188  4.58487e-05
         4        69       189        69       188  4.58487e-05
         1        70       189        69       189  4.58487e-05
         2        70       189        69       189  4.58487e-05
         3        70       189        69       189  4.58487e-05
         4        70       189        69       189  4.58487e-05
         1        70       190        69       190  4.58487e-05
         2        70       190        69       190  4.58487e-05
         3        70       190        69       190  4.58487e-05
         4        70       190        69       190  4.58487e-05
         1        70       191        70       190  4.58487e-05
         2        70       191        70       190  4.58487e-05
         3        70       191        70       190  4.58487e-05
         4        70       191        70       190  4.58487e-05
         1        71       191        70       191  4.58487e-05
         2        71       191        70       191  4.58487e-05
         3        71       191        70       191  4.58487e-05
         4        71       191        70       191  4.58487e-05
         1        71       192        70       192  4.58487e-05
         2        71       192        70       192  4.58487e-05
         3        71       192        70       192  4.58487e-05
         4        71       192        70       192  4.58487e-05
         1        71       193        71       192  4.58487e-05
         2        71       193        71       192  4.58487e-05
         3        71       193        71       192  4.58487e-05
         4        71       193        71       192  4.58487e-05
         1        72       193        71       193  4.58487e-05
         2        72       193        71       193  4.58487e-05
         3        72       193        71       193  4.58487e-05
         4        72       193        71       193  4.58487e-05
         1        72       194        72       193  4.58487e-05
         2        72       194        72       193  4.58487e-05
         3        72       194        72       193  4.58487e-05
         4        72       194        72       193  4.58487e-05
         1        73       194        72       194  4.58487e-05
         2        73       194        72       194  4.58487e-05
         3        73       194        72       194  4.58487e-05
         4        73       194        72       194  4.58487e-05
         1        73       195        73       194  4.58487e-05
         2        73       195        73       194  4.58487e-05
         3        73       195        73       194  4.58487e-05
         4        73       195        73       194  4.58487e-05
         1        74       195        73       195  4.58487e-05
         2        74       195        73       195  4.58487e-05
         3        74       195        73       195  4.58487e-05
         4        74       195        73       195  4.58487e-05
         1        74       196        74       195  4.58487e-05
         2        74       196        74       195  4.58487e-05
         3        74       196        74       195  4.58487e-05
         4        74       196        74       195  4.58487e-05
         1        75       196        74       196  4.58487e-05
         2        75       196        74       196  4.58487e-05
         3        75       196        74       196  4.58487e-05
         4        75       196        74       196  4.58487e-05
         1        75       197        75       196  4.58487e-05
         2        75       197        75       196  4.58487e-05
         3        75       197        75       196  4.58487e-05
         4        75       197        75       196  4.58487e-05
         1        76       197        76       196  4.58487e-05
         2        76       197        76       196  4.58487e-05
         3        76       197        76       196  4.58487e-05
         4        76       197        76       196  4.58487e-05
         1        77       197        76       197  4.58487e-05
         2        77       197        76       197  4.58487e-05
         3        77       197        76       197  4.58487e-05
         4        77       197        76       197  4.58487e-05
         1        77       198        77       197  4.58487e-05
         2        77       198        77       197  4.58487e-05
         3        77       198        77       197  4.58487e-05
         4        77       198        77       197  4.58487e-05
         1        78       198        77       198  4.58487e-05
         2        78       198        77       198  4.58487e-05
         3        78       198        77       198  4.58487e-05
         4        78       198        77       198  4.58487e-05
         1        78       199        78       198  4.58487e-05
         2        78       199        78       198  4.58487e-05
         3        78       199        78       198  4.58487e-05
         4        78       199        78       198  4.58487e-05
         1        79       199        78       199  4.58487e-05
         2        79       199        78       199  4.58487e-05
         3        79       199        78       199  4.58487e-05
         4        79       199        78       199  4.58487e-05
         1        79       200        79       199  4.58487e-05
         2        79       200        79       199  4.58487e-05
         3        79       200        79       199  4.58487e-05
         4        79       200        79       199  4.58487e-05
         1        80       200        80       199  4.58487e-05
         2        80       200        80       199  4.58487e-05
         3        80       200        80       199  4.58487e-05
         4        80       200        80       199  4.58487e-05
         1        81       200        80       200  4.58487e-05
         2        81       200        80       200  4.58487e-05
         3        81       200        80       200  4.58487e-05
         4        81       200        80       200  4.58487e-05
         1        81       201        81       200  4.58487e-05
         2        81       201        81       200  4.58487e-05
         3        81       201        81       200  4.58487e-05
         4        81       201        81       200  4.58487e-05
         1        82       201        81       201  4.58487e-05
         2        82       201        81       201  4.58487e-05
         3        82       201        81       201  4.58487e-05
         4        82       201        81       201  4.58487e-05
         1        82       202        81       202  4.58487e-05
         2        82       202        81       202  4.58487e-05
         3        82       202        81       202  4.58487e-05
         4        82       202        81       202  4.58487e-05
         1        82       203        82       202  4.58487e-05
         2        82       203        82       202  4.58487e-05
         3        82       203        82       202  4.58487e-05
         4        82       203        82       202  4.58487e-05
         1        83       203        82       203  4.58487e-05
         2        83       203        82       203  4.58487e-05
         3        83       203        82       203  4.58487e-05
         4        83       203        82       203  4.58487e-05
         1        83       204        82       204  4.58487e-05
         2        83       204        82       204  4.58487e-05
         3        83       204        82       204  4.58487e-05
         4        83       204        82       204  4.58487e-05
         1        83       205        82       205  4.58487e-05
         2        83       205        82       205  4.58487e-05
         3        83       205        82       205  4.58487e-05
         4        83       205        82       205  4.58487e-05
         1        83       206        83       205  4.58487e-05
         2        83       206        83       205  4.58487e-05
         3        83       206        83       205  4.58487e-05
         4        83       206        83       205  4.58487e-05
         1        84       206        83       206  4.58487e-05
         2        84       206        83       206  4.58487e-05
         3        84       206        83       206  4.58487e-05
         4        84       206        83       206  4.58487e-05
         1        84       207        83       207  4.58487e-05
         2        84       207        83       207  4.58487e-05
         3        84       207        83       207  4.58487e-05
         4        84       207        83       207  4.58487e-05
         1        84       208        83       208  4.58487e-05
         2        84       208        83       208  4.58487e-05
         3        84       208        83       208  4.58487e-05
         4        84       208        83       208  4.58487e-05
         1        84       209        84       208  4.58487e-05
         2        84       209        84       208  4.58487e-05
         3        84       209        84       208  4.58487e-05
         4        84       209        84       208  4.58487e-05
         1        85       209        84       209  4.58487e-05
         2        85       209        84       209  4.58487e-05
         3        85       209        84       209  4.58487e-05
         4        85       209        84       209  4.58487e-05
         1        52        96        51        96      3315.66
         2        52        96        51        96      3315.66
         3        52        96        51        96      3315.66
         4        52        96        51        96      3315.66
         1        52        97        52        96      3315.66
         2        52        97        52        96      3315.66
         3        52        97        52        96      3315.66
         4        52        97        52        96      3315.66
         1        53        97        52        97      3315.66
         2        53        97        52        97      3315.66
         3        53        97        52        97      3315.66
         4        53        97        52        97      3315.66
         1        53        98        52        98      3315.66
         2        53        98        52        98      3315.66
         3        53        98        52        98      3315.66
         4        53        98        52        98      3315.66
         1        53        99        52        99      3315.66
         2        53        99        52        99      3315.66
         3        53        99        52        99      3315.66
         4        53        99        52        99      3315.66
         1        53       100        53        99      3315.66
         2        53       100        53        99      3315.66
         3        53       100        53        99      3315.66
         4        53       100        53        99      3315.66
         1        54       100        53       100      3315.66
         2        54       100        53       100      3315.66
         3        54       100        53       100      3315.66
         4        54       100        53       100      3315.66
         1        54       101        53       101      3315.66
         2        54       101        53       101      3315.66
         3        54       101        53       101      3315.66
         4        54       101        53       101      3315.66
         1        54       102        54       101      3315.66
         2        54       102        54       101      3315.66
         3        54       102        54       101      3315.66
         4        54       102        54       101      3315.66
         1        55       102        54       102      3315.66
         2        55       102        54       102      3315.66
         3        55       102        54       102      3315.66
         4        55       102        54       102      3315.66
         1        55       103        54       103      3315.66
         2        55       103        54       103      3315.66
         3        55       103        54       103      3315.66
         4        55       103        54       103      3315.66
         1        55       104        55       103      3315.66
         2        55       104        55       103      3315.66
         3        55       104        55       103      3315.66
         4        55       104        55       103      3315.66
         1        56       104        55       104      3315.66
         2        56       104        55       104      3315.66
         3        56       104        55       104      3315.66
         4        56       104        55       104      3315.66
         1        56       105        55       105      3315.66
         2        56       105        55       105      3315.66
         3        56       105        55       105      3315.66
         4        56       105        55       105      3315.66
         1        56       106        55       106      3315.66
         2        56       106        55       106      3315.66
         3        56       106        55       106      3315.66
         4        56       106        55       106      3315.66
         1        56       107        56       106      3315.66
         2        56       107        56       106      3315.66
         3        56       107        56       106      3315.66
         4        56       107        56       106      3315.66
         1        57       107        56       107      3315.66
         2        57       107        56       107      3315.66
         3        57       107        56       107      3315.66
         4        57       107        56       107      3315.66
         1        57       108        56       108      3315.66
         2        57       108        56       108      3315.66
         3        57       108        56       108      3315.66
         4        57       108        56       108      3315.66
         1        57       109        57       108      3315.66
         2        57       109        57       108      3315.66
         3        57       109        57       108      3315.66
         4        57       109        57       108      3315.66
         1        58       109        57       109      3315.66
         2        58       109        57       109      3315.66
         3        58       109        57       109      3315.66
         4        58       109        57       109      3315.66
         1        58       110        57       110      3315.66
         2        58       110        57       110      3315.66
         3        58       110        57       110      3315.66
         4        58       110        57       110      3315.66
         1        58       111        57       111      3315.66
         2        58       111        57       111      3315.66
         3        58       111        57       111      3315.66
         4        58       111        57       111      3315.66
         1        58       112        58       111      3315.66
         2        58       112        58       111      3315.66
         3        58       112        58       111      3315.66
         4        58       112        58       111      3315.66
         1        59       112        58       112      3315.66
         2        59       112        58       112      3315.66
         3        59       112        58       112      3315.66
         4        59       112        58       112      3315.66
         1        59       113        58       113      3315.66
         2        59       113        58       113      3315.66
         3        59       113        58       113      3315.66
         4        59       113        58       113      3315.66
         1        59       114        58       114      3315.66
         2        59       114        58       114      3315.66
         3        59       114        58       114      3315.66
         4        59       114        58       114      3315.66
         1        59       115        59       114      3315.66
         2        59       115        59       114      3315.66
         3        59       115        59       114      3315.66
         4        59       115        59       114      3315.66
         1        60       115        59       115      3315.66
         2        60       115        59       115      3315.66
         3        60       115        59       115      3315.66
         4        60       115        59       115      3315.66
         1        60       116        59       116      3315.66
         2        60       116        59       116      3315.66
         3        60       116        59       116      3315.66
         4        60       116        59       116      3315.66
         1        60       117        59       117      3315.66
         2        60       117        59       117      3315.66
         3        60       117        59       117      3315.66
         4        60       117        59       117      3315.66
         1        60       118        60       117      3315.66
         2        60       118        60       117      3315.66
         3        60       118        60       117      3315.66
         4        60       118        60       117      3315.66
         1        61       118        60       118      3315.66
         2        61       118        60       118      3315.66
         3        61       118        60       118      3315.66
         4        61       118        60       118      3315.66
         1        61       119        60       119      3315.66
         2        61       119        60       119      3315.66
         3        61       119        60       119      3315.66
         4        61       119        60       119      3315.66
         1        61       120        60       120      3315.66
         2        61       120        60       120      3315.66
         3        61       120        60       120      3315.66
         4        61       120        60       120      3315.66
         1        61       121        61       120      3315.66
         2        61       121        61       120      3315.66
         3        61       121        61       120      3315.66
         4        61       121        61       120      3315.66
         1        62       121        61       121      3315.66
         2        62       121        61       121      3315.66
         3        62       121        61       121      3315.66
         4        62       121        61       121      3315.66
         1        62       122        61       122      3315.66
         2        62       122        61       122      3315.66
         3        62       122        61       122      3315.66
         4        62       122        61       122      3315.66
         1        62       123        61       123      3315.66
         2        62       123        61       123      3315.66
         3        62       123        61       123      3315.66
         4        62       123        61       123      3315.66
         1        62       124        62       123      3315.66
         2        62       124        62       123      3315.66
         3        62       124        62       123      3315.66
         4        62       124        62       123      3315.66
         1        63       124        62       124      3315.66
         2        63       124        62       124      3315.66
         3        63       124        62       124      3315.66
         4        63       124        62       124      3315.66
         1        63       125        62       125      3315.66
         2        63       125        62       125      3315.66
         3        63       125        62       125      3315.66
         4        63       125        62       125      3315.66
         1        63       126        62       126      3315.66
         2        63       126        62       126      3315.66
         3        63       126        62       126      3315.66
         4        63       126        62       126      3315.66
         1        63       127        63       126      3315.66
         2        63       127        63       126      3315.66
         3        63       127        63       126      3315.66
         4        63       127        63       126      3315.66
         1        64       127        63       127      3315.66
         2        64       127        63       127      3315.66
         3        64       127        63       127      3315.66
         4        64       127        63       127      3315.66
         1        64       128        63       128      3315.66
         2        64       128        63       128      3315.66
         3        64       128        63       128      3315.66
         4        64       128        63       128      3315.66
         1        64       129        63       129      3315.66
         2        64       129        63       129      3315.66
         3        64       129        63       129      3315.66
         4        64       129        63       129      3315.66
         1        64       130        64       129      3315.66
         2        64       130        64       129      3315.66
         3        64       130        64       129      3315.66
         4        64       130        64       129      3315.66
         1        65       130        64       130      3315.66
         2        65       130        64       130      3315.66
         3        65       130        64       130      3315.66
         4        65       130        64       130      3315.66
         1        65       131        64       131      3315.66
         2        65       131        64       131      3315.66
         3        65       131        64       131      3315.66
         4        65       131        64       131      3315.66
         1        65       132        64       132      3315.66
         2        65       132        64       132      3315.66
         3        65       132        64       132      3315.66
         4        65       132        64       132      3315.66
         1        65       133        65       132      3315.66
         2        65       133        65       132      3315.66
         3        65       133        65       132      3315.66
         4        65       133        65       132      3315.66
         1        66       133        65       133      3315.66
         2        66       133        65       133      3315.66
         3        66       133        65       133      3315.66
         4        66       133        65       133      3315.66
         1        66       134        65       134      3315.66
         2        66       134        65       134      3315.66
         3        66       134        65       134      3315.66
         4        66       134        65       134      3315.66
         1        66       135        65       135      3315.66
         2        66       135        65       135      3315.66
         3        66       135        65       135      3315.66
         4        66       135        65       135      3315.66
         1        66       136        65       136      3315.66
         2        66       136        65       136      3315.66
         3        66       136        65       136      3315.66
         4        66       136        65       136      3315.66
         1        66       137        66       136      3315.66
         2        66       137        66       136      3315.66
         3        66       137        66       136      3315.66
         4        66       137        66       136      3315.66
         1        67       137        66       137      3315.66
         2        67       137        66       137      3315.66
         3        67       137        66       137      3315.66
         4        67       137        66       137      3315.66
         1        67       138        66       138      3315.66
         2        67       138        66       138      3315.66
         3        67       138        66       138      3315.66
         4        67       138        66       138      3315.66
         1        67       139        66       139      3315.66
         2        67       139        66       139      3315.66
         3        67       139        66       139      3315.66
         4        67       139        66       139      3315.66
         1        67       140        67       139      3315.66
         2        67       140        67       139      3315.66
         3        67       140        67       139      3315.66
         4        67       140        67       139      3315.66
         1        68       140        67       140      3315.66
         2        68       140        67       140      3315.66
         3        68       140        67       140      3315.66
         4        68       140        67       140      3315.66
         1        68       141        67       141      3315.66
         2        68       141        67       141      3315.66
         3        68       141        67       141      3315.66
         4        68       141        67       141      3315.66
         1        68       142        67       142      3315.66
         2        68       142        67       142      3315.66
         3        68       142        67       142      3315.66
         4        68       142        67       142      3315.66
         1        68       143        67       143      3315.66
         2        68       143        67       143      3315.66
         3        68       143        67       143      3315.66
         4        68       143        67       143      3315.66
         1        68       144        68       143      3315.66
         2        68       144        68       143      3315.66
         3        68       144        68       143      3315.66
         4        68       144        68       143      3315.66
         1        69       144        68       144      3315.66
         2        69       144        68       144      3315.66
         3        69       144        68       144      3315.66
         4        69       144        68       144      3315.66
         1        69       145        68       145      3315.66
         2        69       145        68       145      3315.66
         3        69       145        68       145      3315.66
         4        69       145        68       145      3315.66
         1        69       146        68       146      3315.66
         2        69       146        68       146      3315.66
         3        69       146        68       146      3315.66
         4        69       146        68       146      3315.66
         1        69       147        69       146      3315.66
         2        69       147        69       146      3315.66
         3        69       147        69       146      3315.66
         4        69       147        69       146      3315.66
         1        70       147        69       147      3315.66
         2        70       147        69       147      3315.66
         3        70       147        69       147      3315.66
         4        70       147        69       147      3315.66
         1        70       148        69       148      3315.66
         2        70       148        69       148      3315.66
         3        70       148        69       148      3315.66
         4        70       148        69       148      3315.66
         1        70       149        69       149      3315.66
         2        70       149        69       149      3315.66
         3        70       149        69       149      3315.66
         4        70       149        69       149      3315.66
         1        70       150        69       150      3315.66
         2        70       150        69       150      3315.66
         3        70       150        69       150      3315.66
         4        70       150        69       150      3315.66
         1        70       151        70       150      3315.66
         2        70       151        70       150      3315.66
         3        70       151        70       150      3315.66
         4        70       151        70       150      3315.66
         1        71       151        70       151      3315.66
         2        71       151        70       151      3315.66
         3        71       151        70       151      3315.66
         4        71       151        70       151      3315.66
         1        71       152        70       152      3315.66
         2        71       152        70       152      3315.66
         3        71       152        70       152      3315.66
         4        71       152        70       152      3315.66
         1        71       153        70       153      3315.66
         2        71       153        70       153      3315.66
         3        71       153        70       153      3315.66