# HFB6 package for  MODFLOW-NWT, generated by Flopy.
         0         0      2130
         1        69       188        68       188  0.000409786
         2        69       188        68       188  0.000409786
         3        69       188        68       188  0.000409786
         1        69       189        69       188  0.000409786
         2        69       189        69       188  0.000409786
         3        69       189        69       188  0.000409786
         1        70       189        69       189  0.000409786
         2        70       189        69       189  0.000409786
         3        70       189        69       189  0.000409786
         1        70       190        70       189  0.000409786
         2        70       190        70       189  0.000409786
         3        70       190        70       189  0.000409786
         1        71       190        70       190  0.000409786
         2        71       190        70       190  0.000409786
         3        71       190        70       190  0.000409786
         1        71       191        70       191  0.000409786
         2        71       191        70       191  0.000409786
         3        71       191        70       191  0.000409786
         1        71       192        71       191  0.000409786
         2        71       192        71       191  0.000409786
         3        71       192        71       191  0.000409786
         1        72       192        71       192  0.000409786
         2        72       192        71       192  0.000409786
         3        72       192        71       192  0.000409786
         1        72       193        71       193  0.000409786
         2        72       193        71       193  0.000409786
         3        72       193        71       193  0.000409786
         1        72       194        72       193  0.000409786
         2        72       194        72       193  0.000409786
         3        72       194        72       193  0.000409786
         1        73       194        72       194  0.000409786
         2        73       194        72       194  0.000409786
         3        73       194        72       194  0.000409786
         1        73       195        73       194  0.000409786
         2        73       195        73       194  0.000409786
         3        73       195        73       194  0.000409786
         1        74       195        73       195  0.000409786
         2        74       195        73       195  0.000409786
         3        74       195        73       195  0.000409786
         1        74       196        74       195  0.000409786
         2        74       196        74       195  0.000409786
         3        74       196        74       195  0.000409786
         1        75       196        74       196  0.000409786
         2        75       196        74       196  0.000409786
         3        75       196        74       196  0.000409786
         1        75       197        75       196  0.000409786
         2        75       197        75       196  0.000409786
         3        75       197        75       196  0.000409786
         1        76       197        75       197  0.000409786
         2        76       197        75       197  0.000409786
         3        76       197        75       197  0.000409786
         1        76       198        76       197  0.000409786
         2        76       198        76       197  0.000409786
         3        76       198        76       197  0.000409786
         1        77       198        77       197  0.000409786
         2        77       198        77       197  0.000409786
         3        77       198        77       197  0.000409786
         1        78       198        77       198  0.000409786
         2        78       198        77       198  0.000409786
         3        78       198        77       198  0.000409786
         1        78       199        78       198  0.000409786
         2        78       199        78       198  0.000409786
         3        78       199        78       198  0.000409786
         1        79       199        78       199  0.000409786
         2        79       199        78       199  0.000409786
         3        79       199        78       199  0.000409786
         1        79       200        79       199  0.000409786
         2        79       200        79       199  0.000409786
         3        79       200        79       199  0.000409786
         1        80       200        79       200  0.000409786
         2        80       200        79       200  0.000409786
         3        80       200        79       200  0.000409786
         1        80       201        80       200  0.000409786
         2        80       201        80       200  0.000409786
         3        80       201        80       200  0.000409786
         1        81       201        81       200  0.000409786
         2        81       201        81       200  0.000409786
         3        81       201        81       200  0.000409786
         1        82       201        81       201  0.000409786
         2        82       201        81       201  0.000409786
         3        82       201        81       201  0.000409786
         1        82       202        82       201  0.000409786
         2        82       202        82       201  0.000409786
         3        82       202        82       201  0.000409786
         1        83       202        82       202  0.000409786
         2        83       202        82       202  0.000409786
         3        83       202        82       202  0.000409786
         1        83       203        82       203  0.000409786
         2        83       203        82       203  0.000409786
         3        83       203        82       203  0.000409786
         1        83       204        83       203  0.000409786
         2        83       204        83       203  0.000409786
         3        83       204        83       203  0.000409786
         1        84       204        83       204  0.000409786
         2        84       204        83       204  0.000409786
         3        84       204        83       204  0.000409786
         1        84       205        83       205  0.000409786
         2        84       205        83       205  0.000409786
         3        84       205        83       205  0.000409786
         1        84       206        83       206  0.000409786
         2        84       206        83       206  0.000409786
         3        84       206        83       206  0.000409786
         1        84       207        84       206  0.000409786
         2        84       207        84       206  0.000409786
         3        84       207        84       206  0.000409786
         1        85       207        84       207  0.000409786
         2        85       207        84       207  0.000409786
         3        85       207        84       207  0.000409786
         1        85       208        84       208  0.000409786
         2        85       208        84       208  0.000409786
         3        85       208        84       208  0.000409786
         1        85       209        84       209  0.000409786
         2        85       209        84       209  0.000409786
         3        85       209        84       209  0.000409786
         1        85       210        85       209  0.000409786
         2        85       210        85       209  0.000409786
         3        85       210        85       209  0.000409786
         1        86       210        85       210  0.000409786
         2        86       210        85       210  0.000409786
         3        86       210        85       210  0.000409786
         1        53        97        52        97       8.6945
         2        53        97        52        97       8.6945
         3        53        97        52        97       8.6945
         1        53        98        53        97       8.6945
         2        53        98        53        97       8.6945
         3        53        98        53        97       8.6945
         1        54        98        53        98       8.6945
         2        54        98        53        98       8.6945
         3        54        98        53        98       8.6945
         1        54        99        53        99       8.6945
         2        54        99        53        99       8.6945
         3        54        99        53        99       8.6945
         1        54       100        53       100       8.6945
         2        54       100        53       100       8.6945
         3        54       100        53       100       8.6945
         1        54       101        54       100       8.6945
         2        54       101        54       100       8.6945
         3        54       101        54       100       8.6945
         1        55       101        54       101       8.6945
         2        55       101        54       101       8.6945
         3        55       101        54       101       8.6945
         1        55       102        54       102       8.6945
         2        55       102        54       102       8.6945
         3        55       102        54       102       8.6945
         1        55       103        55       102       8.6945
         2        55       103        55       102       8.6945
         3        55       103        55       102       8.6945
         1        56       103        55       103       8.6945
         2        56       103        55       103       8.6945
         3        56       103        55       103       8.6945
         1        56       104        55       104       8.6945
         2        56       104        55       104       8.6945
         3        56       104        55       104       8.6945
         1        56       105        56       104       8.6945
         2        56       105        56       104       8.6945
         3        56       105        56       104       8.6945
         1        57       105        56       105       8.6945
         2        57       105        56       105       8.6945
         3        57       105        56       105       8.6945
         1        57       106        56       106       8.6945
         2        57       106        56       106       8.6945
         3        57       106        56       106       8.6945
         1        57       107        56       107       8.6945
         2        57       107        56       107       8.6945
         3        57       107        56       107       8.6945
         1        57       108        57       107       8.6945
         2        57       108        57       107       8.6945
         3        57       108        57       107       8.6945
         1        58       108        57       108       8.6945
         2        58       108        57       108       8.6945
         3        58       108        57       108       8.6945
         1        58       109        57       109       8.6945
         2        58       109        57       109       8.6945
         3        58       109        57       109       8.6945
         1        58       110        58       109       8.6945
         2        58       110        58       109       8.6945
         3        58       110        58       109       8.6945
         1        59       110        58       110       8.6945
         2        59       110        58       110       8.6945
         3        59       110        58       110       8.6945
         1        59       111        58       111       8.6945
         2        59       111        58       111       8.6945
         3        59       111        58       111       8.6945
         1        59       112        58       112       8.6945
         2        59       112        58       112       8.6945
         3        59       112        58       112       8.6945
         1        59       113        59       112       8.6945
         2        59       113        59       112       8.6945
         3        59       113        59       112       8.6945
         1        60       113        59       113       8.6945
         2        60       113        59       113       8.6945
         3        60       113        59       113       8.6945
         1        60       114        59       114       8.6945
         2        60       114        59       114       8.6945
         3        60       114        59       114       8.6945
         1        60       115        59       115       8.6945
         2        60       115        59       115       8.6945
         3        60       115        59       115       8.6945
         1        60       116        60       115       8.6945
         2        60       116        60       115       8.6945
         3        60       116        60       115       8.6945
         1        61       116        60       116       8.6945
         2        61       116        60       116       8.6945
         3        61       116        60       116       8.6945
         1        61       117        60       117       8.6945
         2        61       117        60       117       8.6945
         3        61       117        60       117       8.6945
         1        61       118        60       118       8.6945
         2        61       118        60       118       8.6945
         3        61       118        60       118       8.6945
         1        61       119        61       118       8.6945
         2        61       119        61       118       8.6945
         3        61       119        61       118       8.6945
         1        62       119        61       119       8.6945
         2        62       119        61       119       8.6945
         3        62       119        61       119       8.6945
         1        62       120        61       120       8.6945
         2        62       120        61       120       8.6945
         3        62       120        61       120       8.6945
         1        62       121        61       121       8.6945
         2        62       121        61       121       8.6945
         3        62       121        61       121       8.6945
         1        62       122        62       121       8.6945
         2        62       122        62       121       8.6945
         3        62       122        62       121       8.6945
         1        63       122        62       122       8.6945
         2        63       122        62       122       8.6945
         3        63       122        62       122       8.6945
         1        63       123        62       123       8.6945
         2        63       123        62       123       8.6945
         3        63       123        62       123       8.6945
         1        63       124        62       124       8.6945
         2        63       124        62       124       8.6945
         3        63       124        62       124       8.6945
         1        63       125        63       124       8.6945
         2        63       125        63       124       8.6945
         3        63       125        63       124       8.6945
         1        64       125        63       125       8.6945
         2        64       125        63       125       8.6945
         3        64       125        63       125       8.6945
         1        64       126        63       126       8.6945
         2        64       126        63       126       8.6945
         3        64       126        63       126       8.6945
         1        64       127        63       127       8.6945
         2        64       127        63       127       8.6945
         3        64       127        63       127       8.6945
         1        64       128        64       127       8.6945
         2        64       128        64       127       8.6945
         3        64       128        64       127       8.6945
         1        65       128        64       128       8.6945
         2        65       128        64       128       8.6945
         3        65       128        64       128       8.6945
         1        65       129        64       129       8.6945
         2        65       129        64       129       8.6945
         3        65       129        64       129       8.6945
         1        65       130        64       130       8.6945
         2        65       130        64       130       8.6945
         3        65       130        64       130       8.6945
         1        65       131        65       130       8.6945
         2        65       131        65       130       8.6945
         3        65       131        65       130       8.6945
         1        66       131        65       131       8.6945
         2        66       131        65       131       8.6945
         3        66       131        65       131       8.6945
         1        66       132        65       132       8.6945
         2        66       132        65       132       8.6945
         3        66       132        65       132       8.6945
         1        66       133        65       133       8.6945
         2        66       133        65       133       8.6945
         3        66       133        65       133       8.6945
         1        66       134        66       133       8.6945
         2        66       134        66       133       8.6945
         3        66       134        66       133       8.6945
         1        67       134        66       134       8.6945
         2        67       134        66       134       8.6945
         3        67       134        66       134       8.6945
         1        67       135        66       135       8.6945
         2        67       135        66       135       8.6945
         3        67       135        66       135       8.6945
         1        67       136        66       136       8.6945
         2        67       136        66       136       8.6945
         3        67       136        66       136       8.6945
         1        67       137        66       137       8.6945
         2        67       137        66       137       8.6945
         3        67       137        66       137       8.6945
         1        67       138        67       137       8.6945
         2        67       138        67       137       8.6945
         3        67       138        67       137       8.6945
         1        68       138        67       138       8.6945
         2        68       138        67       138       8.6945
         3        68       138        67       138       8.6945
         1        68       139        67       139       8.6945
         2        68       139        67       139       8.6945
         3        68       139        67       139       8.6945
         1        68       140        67       140       8.6945
         2        68       140        67       140       8.6945
         3        68       140        67       140       8.6945
         1        68       141        68       140       8.6945
         2        68       141        68       140       8.6945
         3        68       141        68       140       8.6945
         1        69       141        68       141       8.6945
         2        69       141        68       141       8.6945
         3        69       141        68       141       8.6945
         1        69       142        68       142       8.6945
         2        69       142        68       142       8.6945
         3        69       142        68       142       8.6945
         1        69       143        68       143       8.6945
         2        69       143        68       143       8.6945
         3        69       143        68       143       8.6945
         1        69       144        68       144       8.6945
         2        69       144        68       144       8.6945
         3        69       144        68       144       8.6945
         1        69       145        69       144       8.6945
         2        69       145        69       144       8.6945
         3        69       145        69       144       8.6945
         1        70       145        69       145       8.6945
         2        70       145        69       145       8.6945
         3        70       145        69       145       8.6945
         1        70       146        69       146       8.6945
         2        70       146        69       146       8.6945
         3        70       146        69       146       8.6945
         1        70       147        69       147       8.6945
         2        70       147        69       147       8.6945
         3        70       147        69       147       8.6945
         1        70       148        70       147       8.6945
         2        70       148        70       147       8.6945
         3        70       148        70       147       8.6945
         1        71       148        70       148       8.6945
         2        71       148        70       148       8.6945
         3        71       148        70       148       8.6945
         1        71       149        70       149       8.6945
         2        71       149        70       149       8.6945
         3        71       149        70       149       8.6945
         1        71       150        70       150       8.6945
         2        71       150        70       150       8.6945
         3        71       150        70       150       8.6945
         1        71       151        70       151       8.6945
         2        71       151        70       151       8.6945
         3        71       151        70       151       8.6945
         1        71       152        71       151       8.6945
         2        71       152        71       151       8.6945
         3        71       152        71       151       8.6945
         1        72       152        71       152       8.6945
         2        72       152        71       152       8.6945
         3        72       152        71       152       8.6945
         1        72       153        71       153       8.6945
         2        72       153        71       153       8.6945
         3        72       153        71       153       8.6945
         1        72       154        71       154       8.6945
         2        72       154        71       154       8.6945
         3        72       154        71       154       8.6945
         1        72       155        71       155       8.6945
         2        72       155        71       155       8.6945
         3        72       155        71       155       8.6945
         1        72       156        72       155       8.6945
         2        72       156        72       155       8.6945
         3        72       156        72       155       8.6945
         1        73       156        72       156       8.6945
         2        73       156        72       156       8.6945
         3        73       156        72       156       8.6945
         1        73       157        72       157       8.6945
         2        73       157        72       157       8.6945
         3        73       157        72       157       8.6945
         1        73       158        72       158       8.6945
         2        73       158        72       158       8.6945
         3        73       158        72       158       8.6945
         1        73       159        72       159       8.6945
         2        73       159        72       159       8.6945
         3        73       159        72       159       8.6945
         1        73       160        72       160       8.6945
         2        73       160        72       160       8.6945
         3        73       160        72       160       8.6945
         1        73       161        73       160       8.6945
         2        73       161        73       160       8.6945
         3        73       161        73       160       8.6945
         1        74       161        73       161       8.6945
         2        74       161        73       161       8.6945
         3        74       161        73       161       8.6945
         1        74       162        73       162       8.6945
         2        74       162        73       162       8.6945
         3        74       162        73       162       8.6945
         1        74       163        73       163       8.6945
         2        74       163        73       163       8.6945
         3        74       163        73       163       8.6945
         1        74       164        73       164       8.6945
         2        74       164        73       164       8.6945
         3        74       164        73       164       8.6945
         1        74       165        74       164       8.6945
         2        74       165        74       164       8.6945
         3        74       165        74       164       8.6945
         1        75       165        74       165       8.6945
         2        75       165        74       165       8.6945
         3        75       165        74       165       8.6945
         1        75       166        74       166       8.6945
         2        75       166        74       166       8.6945
         3        75       166        74       166       8.6945
         1        75       167        74       167       8.6945
         2        75       167        74       167       8.6945
         3        75       167        74       167       8.6945
         1        75       168        74       168       8.6945
         2        75       168        74       168       8.6945
         3        75       168        74       168       8.6945
         1        75       169        75       168       8.6945
         2        75       169        75       168       8.6945
         3        75       169        75       168       8.6945
         1        76       169        75       169       8.6945
         2        76       169        75       169       8.6945
         3        76       169        75       169       8.6945
         1        76       170        75       170       8.6945
         2        76       170        75       170       8.6945
         3        76       170        75       170       8.6945
         1        76       171        75       171       8.6945
         2        76       171        75       171       8.6945
         3        76       171        75       171       8.6945
         1        76       172        76       171       8.6945
         2        76       172        76       171       8.6945
         3        76       172        76       171       8.6945
         1        77       172        76       172       8.6945
         2        77       172        76       172       8.6945
         3        77       172        76       172       8.6945
         1        77       173        76       173       8.6945
         2        77       173        76       173       8.6945
         3        77       173        76       173       8.6945
         1        77       174        77       173       8.6945
         2        77       174        77       173       8.6945
         3        77       174        77       173       8.6945
         1        78       174        77       174       8.6945
         2        78       174        77       174       8.6945
         3        78       174        77       174       8.6945
         1        78       175        77       175       8.6945
         2        78       175        77       175       8.6945
         3        78       175        77       175       8.6945
         1        78       176        77       176       8.6945
         2        78       176        77       176       8.6945
         3        78       176        77       176       8.6945
         1        78       177        78       176       8.6945
         2        78       177        78       176       8.6945
         3        78       177        78       176       8.6945
         1        79       177        78       177       8.6945
         2        79       177        78       177       8.6945
         3        79       177        78       177       8.6945
         1        79       178        78       178       8.6945
         2        79       178        78       178       8.6945
         3        79       178        78       178       8.6945
         1        79       179        79       178       8.6945
         2        79       179        79       178       8.6945
         3        79       179        79       178       8.6945
         1        80       179        79       179       8.6945
         2        80       179        79       179       8.6945
         3        80       179        79       179       8.6945
         1        80       180        79       180       8.6945
         2        80       180        79       180       8.6945
         3        80       180        79       180       8.6945
         1        80       181        79       181       8.6945
         2        80       181        79       181       8.6945
         3        80       181        79       181       8.6945
         1        80       182        80       181       8.6945
         2        80       182        80       181       8.6945
         3        80       182        80       181       8.6945
         1        81       182        80       182       8.6945
         2        81       182        80       182       8.6945
         3        81       182        80       182       8.6945
         1        81       183        80       183       8.6945
         2        81       183        80       183       8.6945
         3        81       183        80       183       8.6945
         1        81       184        80       184       8.6945
         2        81       184        80       184       8.6945