# WEL package for  MODFLOW-NWT, generated by Flopy.
         7         1
         0         0 # stress period 1
         0         0 # stress period 2
         0         0 # stress period 3
         0         0 # stress period 4
         0         0 # stress period 5
         0         0 # stress period 6
         0         0 # stress period 7
         0         0 # stress period 8
         0         0 # stress period 9
         0         0 # stress period 10
         0         0 # stress period 11
         0         0 # stress period 12
         0         0 # stress period 13
         0         0 # stress period 14
         0         0 # stress period 15
         0         0 # stress period 16
         0         0 # stress period 17
         0         0 # stress period 18
         0         0 # stress period 19
         0         0 # stress period 20
         0         0 # stress period 21
         0         0 # stress period 22
         0         0 # stress period 23
         0         0 # stress period 24
         0         0 # stress period 25
         0         0 # stress period 26
         0         0 # stress period 27
         0         0 # stress period 28
         0         0 # stress period 29
         0         0 # stress period 30
         0         0 # stress period 31
         0         0 # stress period 32
         0         0 # stress period 33
         0         0 # stress period 34
         0         0 # stress period 35
         0         0 # stress period 36
         0         0 # stress period 37
         0         0 # stress period 38
         0         0 # stress period 39
         0         0 # stress period 40
         0         0 # stress period 41
         0         0 # stress period 42
         0         0 # stress period 43
         0         0 # stress period 44
         0         0 # stress period 45
         0         0 # stress period 46
         0         0 # stress period 47
         0         0 # stress period 48
         0         0 # stress period 49
         0         0 # stress period 50
         0         0 # stress period 51
         0         0 # stress period 52
         0         0 # stress period 53
         0         0 # stress period 54
         0         0 # stress period 55
         0         0 # stress period 56
         0         0 # stress period 57
         0         0 # stress period 58
         0         0 # stress period 59
         0         0 # stress period 60
         0         0 # stress period 61
         0         0 # stress period 62
         0         0 # stress period 63
         0         0 # stress period 64
         0         0 # stress period 65
         0         0 # stress period 66
         0         0 # stress period 67
         0         0 # stress period 68
         0         0 # stress period 69
         0         0 # stress period 70
         0         0 # stress period 71
         0         0 # stress period 72
         0         0 # stress period 73
         0         0 # stress period 74
         0         0 # stress period 75
         0         0 # stress period 76
         0         0 # stress period 77
         0         0 # stress period 78
         0         0 # stress period 79
         0         0 # stress period 80
         0         0 # stress period 81
         0         0 # stress period 82
         0         0 # stress period 83
         0         0 # stress period 84
         0         0 # stress period 85
         0         0 # stress period 86
         0         0 # stress period 87
         0         0 # stress period 88
         0         0 # stress period 89
         0         0 # stress period 90
         0         0 # stress period 91
         0         0 # stress period 92
         0         0 # stress period 93
         0         0 # stress period 94
         0         0 # stress period 95
         0         0 # stress period 96
         0         0 # stress period 97
         0         0 # stress period 98
         0         0 # stress period 99
         0         0 # stress period 100
         0         0 # stress period 101
         0         0 # stress period 102
         0         0 # stress period 103
         0         0 # stress period 104
         0         0 # stress period 105
         0         0 # stress period 106
         0         0 # stress period 107
         0         0 # stress period 108
         0         0 # stress period 109
         0         0 # stress period 110
         0         0 # stress period 111
         0         0 # stress period 112
         0         0 # stress period 113
         0         0 # stress period 114
         0         0 # stress period 115
         0         0 # stress period 116
         0         0 # stress period 117
         0         0 # stress period 118
         0         0 # stress period 119
         0         0 # stress period 120
         0         0 # stress period 121
         0         0 # stress period 122
         0         0 # stress period 123
         0         0 # stress period 124
         0         0 # stress period 125
         0         0 # stress period 126
         0         0 # stress period 127
         0         0 # stress period 128
         0         0 # stress period 129
         0         0 # stress period 130
         0         0 # stress period 131
         0         0 # stress period 132
         0         0 # stress period 133
         0         0 # stress period 134
         0         0 # stress period 135
         0         0 # stress period 136
         0         0 # stress period 137
         0         0 # stress period 138
         0         0 # stress period 139
         0         0 # stress period 140
         0         0 # stress period 141
         0         0 # stress period 142
         0         0 # stress period 143
         0         0 # stress period 144
         0         0 # stress period 145
         0         0 # stress period 146
         0         0 # stress period 147
         0         0 # stress period 148
         0         0 # stress period 149
         0         0 # stress period 150
         0         0 # stress period 151
         0         0 # stress period 152
         0         0 # stress period 153
         0         0 # stress period 154
         0         0 # stress period 155
         0         0 # stress period 156
         7         0 # stress period 157
         2        28       145   7.9458008E+03
         2        27       145   7.9458008E+03
         2        26       146   7.9458008E+03
         2        25       146   7.9458008E+03
         2        24       147   7.9458008E+03
         2        23       147   7.9458008E+03
         2        23       148   7.9458008E+03
         7         0 # stress period 158
         2        28       145   7.9458008E+03
         2        27       145   7.9458008E+03
         2        26       146   7.9458008E+03
         2        25       146   7.9458008E+03
         2        24       147   7.9458008E+03
         2        23       147   7.9458008E+03
         2        23       148   7.9458008E+03
         7         0 # stress period 159
         2        28       145   7.9458008E+03
         2        27       145   7.9458008E+03
         2        26       146   7.9458008E+03
         2        25       146   7.9458008E+03
         2        24       147   7.9458008E+03
         2        23       147   7.9458008E+03
         2        23       148   7.9458008E+03
         7         0 # stress period 160
         2        28       145   7.9458008E+03
         2        27       145   7.9458008E+03
         2        26       146   7.9458008E+03
         2        25       146   7.9458008E+03
         2        24       147   7.9458008E+03
         2        23       147   7.9458008E+03
         2        23       148   7.9458008E+03
         7         0 # stress period 161
         2        28       145   7.9458008E+03
         2        27       145   7.9458008E+03
         2        26       146   7.9458008E+03
         2        25       146   7.9458008E+03
         2        24       147   7.9458008E+03
         2        23       147   7.9458008E+03
         2        23       148   7.9458008E+03
         7         0 # stress period 162
         2        28       145   7.9458008E+03
         2        27       145   7.9458008E+03
         2        26       146   7.9458008E+03
         2        25       146   7.9458008E+03
         2        24       147   7.9458008E+03
         2        23       147   7.9458008E+03
         2        23       148   7.9458008E+03
         7         0 # stress period 163
         2        28       145   7.9458008E+03
         2        27       145   7.9458008E+03
         2        26       146   7.9458008E+03
         2        25       146   7.9458008E+03
         2        24       147   7.9458008E+03
         2        23       147   7.9458008E+03
         2        23       148   7.9458008E+03
         7         0 # stress period 164
         2        28       145   7.9458008E+03
         2        27       145   7.9458008E+03
         2        26       146   7.9458008E+03
         2        25       146   7.9458008E+03
         2        24       147   7.9458008E+03
         2        23       147   7.9458008E+03
         2        23       148   7.9458008E+03
         7         0 # stress period 165
         2        28       145   7.9458008E+03
         2        27       145   7.9458008E+03
         2        26       146   7.9458008E+03
         2        25       146   7.9458008E+03
         2        24       147   7.9458008E+03
         2        23       147   7.9458008E+03
         2        23       148   7.9458008E+03
         7         0 # stress period 166
         2        28       145   7.9458008E+03
         2        27       145   7.9458008E+03
         2        26       146   7.9458008E+03
         2        25       146   7.9458008E+03
         2        24       147   7.9458008E+03
         2        23       147   7.9458008E+03
         2        23       148   7.9458008E+03
         7         0 # stress period 167
         2        28       145   7.9458008E+03
         2        27       145   7.9458008E+03
         2        26       146   7.9458008E+03
         2        25       146   7.9458008E+03
         2        24       147   7.9458008E+03
         2        23       147   7.9458008E+03
         2        23       148   7.9458008E+03
         7         0 # stress period 168
         2        28       145   7.9458008E+03
         2        27       145   7.9458008E+03
         2        26       146   7.9458008E+03
         2        25       146   7.9458008E+03
         2        24       147   7.9458008E+03
         2        23       147   7.9458008E+03
         2        23       148   7.9458008E+03
         7         0 # stress period 169
         2        28       145   7.9458008E+03
         2        27       145   7.9458008E+03
         2        26       146   7.9458008E+03
         2        25       146   7.9458008E+03
         2        24       147   7.9458008E+03
         2        23       147   7.9458008E+03
         2        23       148   7.9458008E+03
         7         0 # stress period 170
         2        28       145   7.9458008E+03
         2        27       145   7.9458008E+03
         2        26       146   7.9458008E+03
         2        25       146   7.9458008E+03
         2        24       147   7.9458008E+03
         2        23       147   7.9458008E+03
         2        23       148   7.9458008E+03
         7         0 # stress period 171
         2        28       145   7.9458008E+03
         2        27       145   7.9458008E+03
         2        26       146   7.9458008E+03
         2        25       146   7.9458008E+03
         2        24       147   7.9458008E+03
         2        23       147   7.9458008E+03
         2        23       148   7.9458008E+03
         7         0 # stress period 172
         2        28       145   7.9458008E+03
         2        27       145   7.9458008E+03
         2        26       146   7.9458008E+03
         2        25       146   7.9458008E+03
         2        24       147   7.9458008E+03
         2        23       147   7.9458008E+03
         2        23       148   7.9458008E+03
         7         0 # stress period 173
         2        28       145   7.9458008E+03
         2        27       145   7.9458008E+03
         2        26       146   7.9458008E+03
         2        25       146   7.9458008E+03
         2        24       147   7.9458008E+03
         2        23       147   7.9458008E+03
         2        23       148   7.9458008E+03
         7         0 # stress period 174
         2        28       145   7.9458008E+03
         2        27       145   7.9458008E+03
         2        26       146   7.9458008E+03
         2        25       146   7.9458008E+03
         2        24       147   7.9458008E+03
         2        23       147   7.9458008E+03
         2        23       148   7.9458008E+03
         7         0 # stress period 175
         2        28       145   7.9458008E+03
         2        27       145   7.9458008E+03
         2        26       146   7.9458008E+03
         2        25       146   7.9458008E+03
         2        24       147   7.9458008E+03
         2        23       147   7.9458008E+03
         2        23       148   7.9458008E+03
         7         0 # stress period 176
         2        28       145   7.9458008E+03
         2        27       145   7.9458008E+03
         2        26       146   7.9458008E+03
         2        25       146   7.9458008E+03
         2        24       147   7.9458008E+03
         2        23       147   7.9458008E+03
         2        23       148   7.9458008E+03
         7         0 # stress period 177
         2        28       145   7.9458008E+03
         2        27       145   7.9458008E+03
         2        26       146   7.9458008E+03
         2        25       146   7.9458008E+03
         2        24       147   7.9458008E+03
         2        23       147   7.9458008E+03
         2        23       148   7.9458008E+03
         7         0 # stress period 178
         2        28       145   7.9458008E+03
         2        27       145   7.9458008E+03
         2        26       146   7.9458008E+03
         2        25       146   7.9458008E+03
         2        24       147   7.9458008E+03
         2        23       147   7.9458008E+03
         2        23       148   7.9458008E+03
         7         0 # stress period 179
         2        28       145   7.9458008E+03
         2        27       145   7.9458008E+03
         2        26       146   7.9458008E+03
         2        25       146   7.9458008E+03
         2        24       147   7.9458008E+03
         2        23       147   7.9458008E+03
         2        23       148   7.9458008E+03
         7         0 # stress period 180
         2        28       145   7.9458008E+03
         2        27       145   7.9458008E+03
         2        26       146   7.9458008E+03
         2        25       146   7.9458008E+03
         2        24       147   7.9458008E+03
         2        23       147   7.9458008E+03
         2        23       148   7.9458008E+03
         7         0 # stress period 181
         2        28       145   7.9458008E+03
         2        27       145   7.9458008E+03
         2        26       146   7.9458008E+03
         2        25       146   7.9458008E+03
         2        24       147   7.9458008E+03
         2        23       147   7.9458008E+03
         2        23       148   7.9458008E+03
         7         0 # stress period 182
         2        28       145   7.9458008E+03
         2        27       145   7.9458008E+03
         2        26       146   7.9458008E+03
         2        25       146   7.9458008E+03
         2        24       147   7.9458008E+03
         2        23       147   7.9458008E+03
         2        23       148   7.9458008E+03
         7         0 # stress period 183
         2        28       145   7.9458008E+03
         2        27       145   7.9458008E+03
         2        26       146   7.9458008E+03
         2        25       146   7.9458008E+03
         2        24       147   7.9458008E+03
         2        23       147   7.9458008E+03
         2        23       148   7.9458008E+03
         7         0 # stress period 184
         2        28       145   7.9458008E+03
         2        27       145   7.9458008E+03
         2        26       146   7.9458008E+03
         2        25       146   7.9458008E+03
         2        24       147   7.9458008E+03
         2        23       147   7.9458008E+03
         2        23       148   7.9458008E+03
         7         0 # stress period 185
         2        28       145   7.9458008E+03
         2        27       145   7.9458008E+03
         2        26       146   7.9458008E+03
         2        25       146   7.9458008E+03
         2        24       147   7.9458008E+03
         2        23       147   7.9458008E+03
         2        23       148   7.9458008E+03
         7         0 # stress period 186
         2        28       145   7.9458008E+03
         2        27       145   7.9458008E+03
         2        26       146   7.9458008E+03
         2        25       146   7.9458008E+03
         2        24       147   7.9458008E+03
         2        23       147   7.9458008E+03
         2        23       148   7.9458008E+03
         7         0 # stress period 187
         2        28       145   7.9458008E+03
         2        27       145   7.9458008E+03
         2        26       146   7.9458008E+03
         2        25       146   7.9458008E+03
         2        24       147   7.9458008E+03
         2        23       147   7.9458008E+03
         2        23       148   7.9458008E+03
         7         0 # stress period 188
         2        28       145   7.9458008E+03
         2        27       145   7.9458008E+03
         2        26       146   7.9458008E+03
         2        25       146   7.9458008E+03
         2        24       147   7.9458008E+03
         2        23       147   7.9458008E+03
         2        23       148   7.9458008E+03
         7         0 # stress period 189
         2        28       145   7.9458008E+03
         2        27       145   7.9458008E+03
         2        26       146   7.9458008E+03
         2        25       146   7.9458008E+03
         2        24       147   7.9458008E+03
         2        23       147   7.9458008E+03
         2        23       148   7.9458008E+03
         7         0 # stress period 190
         2        28       145   7.9458008E+03
         2        27       145   7.9458008E+03
         2        26       146   7.9458008E+03
         2        25       146   7.9458008E+03
         2        24       147   7.9458008E+03
         2        23       147   7.9458008E+03
         2        23       148   7.9458008E+03
         7         0 # stress period 191
         2        28       145   7.9458008E+03
         2        27       145   7.9458008E+03
         2        26       146   7.9458008E+03
         2        25       146   7.9458008E+03
         2        24       147   7.9458008E+03
         2        23       147   7.9458008E+03
         2        23       148   7.9458008E+03
         7         0 # stress period 192
         2        28       145   7.9458008E+03
         2        27       145   7.9458008E+03
         2        26       146   7.9458008E+03
         2        25       146   7.9458008E+03
         2        24       147   7.9458008E+03
         2        23       147   7.9458008E+03
         2        23       148   7.9458008E+03
         7         0 # stress period 193
         2        28       145   7.9458008E+03
         2        27       145   7.9458008E+03
         2        26       146   7.9458008E+03
         2        25       146   7.9458008E+03
         2        24       147   7.9458008E+03
         2        23       147   7.9458008E+03
         2        23       148   7.9458008E+03
         7         0 # stress period 194
         2        28       145   7.9458008E+03
         2        27       145   7.9458008E+03
         2        26       146   7.9458008E+03
         2        25       146   7.9458008E+03
         2        24       147   7.9458008E+03
         2        23       147   7.9458008E+03
         2        23       148   7.9458008E+03
         7         0 # stress period 195
         2        28       145   7.9458008E+03
         2        27       145   7.9458008E+03
         2        26       146   7.9458008E+03
         2        25       146   7.9458008E+03
         2        24       147   7.9458008E+03
         2        23       147   7.9458008E+03
         2        23       148   7.9458008E+03
         7         0 # stress period 196
         2        28       145   7.9458008E+03
         2        27       145   7.9458008E+03
         2        26       146   7.9458008E+03
         2        25       146   7.9458008E+03
         2        24       147   7.9458008E+03
         2        23       147   7.9458008E+03
         2        23       148   7.9458008E+03
         7         0 # stress period 197
         2        28       145   7.9458008E+03
         2        27       145   7.9458008E+03
         2        26       146   7.9458008E+03
         2        25       146   7.9458008E+03
         2        24       147   7.9458008E+03
         2        23       147   7.9458008E+03
         2        23       148   7.9458008E+03
         7         0 # stress period 198
         2        28       145   7.9458008E+03
         2        27       145   7.9458008E+03
         2        26       146   7.9458008E+03
         2        25       146   7.9458008E+03
         2        24       147   7.9458008E+03
         2        23       147   7.9458008E+03
         2        23       148   7.9458008E+03
         7         0 # stress period 199
         2        28       145   7.9458008E+03
         2        27       145   7.9458008E+03
         2        26       146   7.9458008E+03
         2        25       146   7.9458008E+03
         2        24       147   7.9458008E+03
         2        23       147   7.9458008E+03
         2        23       148   7.9458008E+03
         7         0 # stress period 200
         2        28       145   7.9458008E+03
         2        27       145   7.9458008E+03
         2        26       146   7.9458008E+03
         2        25       146   7.9458008E+03
         2        24       147   7.9458008E+03
         2        23       147   7.9458008E+03
         2        23       148   7.9458008E+03
         7         0 # stress period 201
         2        28       145   7.9458008E+03
         2        27       145   7.9458008E+03
         2        26       146   7.9458008E+03
         2        25       146   7.9458008E+03
         2        24       147   7.9458008E+03
         2        23       147   7.9458008E+03
         2        23       148   7.9458008E+03
         7         0 # stress period 202
         2        28       145   7.9458008E+03
         2        27       145   7.9458008E+03
         2        26       146   7.9458008E+03
         2        25       146   7.9458008E+03
         2        24       147   7.9458008E+03
         2        23       147   7.9458008E+03
         2        23       148   7.9458008E+03
         7         0 # stress period 203
         2        28       145   7.9458008E+03
         2        27       145   7.9458008E+03
         2        26       146   7.9458008E+03
         2        25       146   7.9458008E+03
         2        24       147   7.9458008E+03
         2        23       147   7.9458008E+03
         2        23       148   7.9458008E+03
         7         0 # stress period 204
         2        28       145   7.9458008E+03
         2        27       145   7.9458008E+03
         2        26       146   7.9458008E+03
         2        25       146   7.9458008E+03
         2        24       147   7.9458008E+03
         2        23       147   7.9458008E+03
         2        23       148   7.9458008E+03
         7         0 # stress period 205
         2        28       145   7.9458008E+03
         2        27       145   7.9458008E+03
         2        26       146   7.9458008E+03
         2        25       146   7.9458008E+03
         2        24       147   7.9458008E+03
         2        23       147   7.9458008E+03
         2        23       148   7.9458008E+03
         7         0 # stress period 206
         2        28       145   7.9458008E+03
         2        27       145   7.9458008E+03
         2        26       146   7.9458008E+03
         2        25       146   7.9458008E+03
         2        24       147   7.9458008E+03
         2        23       147   7.9458008E+03
         2        23       148   7.9458008E+03
         7         0 # stress period 207
         2        28       145   7.9458008E+03
         2        27       145   7.9458008E+03
         2        26       146   7.9458008E+03
         2        25       146   7.9458008E+03
         2        24       147   7.9458008E+03
         2        23       147   7.9458008E+03
         2        23       148   7.9458008E+03
         7         0 # stress period 208
         2        28       145   7.9458008E+03
         2        27       145   7.9458008E+03
         2        26       146   7.9458008E+03
         2        25       146   7.9458008E+03
         2        24       147   7.9458008E+03
         2        23       147   7.9458008E+03
         2        23       148   7.9458008E+03
         7         0 # stress period 209
         2        28       145   7.9458008E+03
         2        27       145   7.9458008E+03
         2        26       146   7.9458008E+03
         2        25       146   7.9458008E+03
         2        24       147   7.9458008E+03
         2        23       147   7.9458008E+03
         2        23       148   7.9458008E+03
         7         0 # stress period 210
         2        28       145   7.9458008E+03
         2        27       145   7.9458008E+03
         2        26       146   7.9458008E+03
         2        25       146   7.9458008E+03
         2        24       147   7.9458008E+03
         2        23       147   7.9458008E+03
         2        23       148   7.9458008E+03
         7         0 # stress period 211
         2        28       145   7.9458008E+03
         2        27       145   7.9458008E+03
         2        26       146   7.9458008E+03
         2        25       146   7.9458008E+03
         2        24       147   7.9458008E+03
         2        23       147   7.9458008E+03
         2        23       148   7.9458008E+03
         7         0 # stress period 212
         2        28       145   7.9458008E+03
         2        27       145   7.9458008E+03
         2        26       146   7.9458008E+03
         2        25       146   7.9458008E+03
         2        24       147   7.9458008E+03
         2        23       147   7.9458008E+03
         2        23       148   7.9458008E+03
         7         0 # stress period 213
         2        28       145   7.9458008E+03
         2        27       145   7.9458008E+03
         2        26       146   7.9458008E+03
         2        25       146   7.9458008E+03
         2        24       147   7.9458008E+03
         2        23       147   7.9458008E+03
         2        23       148   7.9458008E+03
         7         0 # stress period 214
         2        28       145   7.9458008E+03
         2        27       145   7.9458008E+03
         2        26       146   7.9458008E+03
         2        25       146   7.9458008E+03
         2        24       147   7.9458008E+03
         2        23       147   7.9458008E+03
         2        23       148   7.9458008E+03
         7         0 # stress period 215
         2        28       145   7.9458008E+03
         2        27       145   7.9458008E+03
         2        26       146   7.9458008E+03
         2        25       146   7.9458008E+03
         2        24       147   7.9458008E+03
         2        23       147   7.9458008E+03
         2        23       148   7.9458008E+03
         7         0 # stress period 216
         2        28       145   7.9458008E+03
         2        27       145   7.9458008E+03
         2        26       146   7.9458008E+03
         2        25       146   7.9458008E+03
         2        24       147   7.9458008E+03
         2        23       147   7.9458008E+03
         2        23       148   7.9458008E+03
         7         0 # stress period 217
         2        28       145   7.9458008E+03
         2        27       145   7.9458008E+03
         2        26       146   7.9458008E+03
         2        25       146   7.9458008E+03
         2        24       147   7.9458008E+03
         2        23       147   7.9458008E+03
         2        23       148   7.9458008E+03
         7         0 # stress period 218
         2        28       145   7.9458008E+03
         2        27       145   7.9458008E+03
         2        26       146   7.9458008E+03
         2        25       146   7.9458008E+03
         2        24       147   7.9458008E+03
         2        23       147   7.9458008E+03
         2        23       148   7.9458008E+03
         7         0 # stress period 219
         2        28       145   7.9458008E+03
         2        27       145   7.9458008E+03
         2        26       146   7.9458008E+03
         2        25       146   7.9458008E+03
         2        24       147   7.9458008E+03
         2        23       147   7.9458008E+03
         2        23       148   7.9458008E+03
         7         0 # stress period 220
         2        28       145   7.9458008E+03
         2        27       145   7.9458008E+03
         2        26       146   7.9458008E+03
         2        25       146   7.9458008E+03
         2        24       147   7.9458008E+03
         2        23       147   7.9458008E+03