# OC package for  MODFLOW-NWT, generated by Flopy.
HEAD PRINT FORMAT   0
HEAD SAVE UNIT    51
DRAWDOWN PRINT FORMAT   0
COMPACT BUDGET AUX

period 1 step 31 
  SAVE HEAD
  PRINT BUDGET
  SAVE BUDGET

period 2 step 28 
  SAVE HEAD
  PRINT BUDGET
  SAVE BUDGET

period 3 step 31 
  SAVE HEAD
  PRINT BUDGET
  SAVE BUDGET

period 4 step 30 
  SAVE HEAD
  PRINT BUDGET
  SAVE BUDGET

period 5 step 31 
  SAVE HEAD
  PRINT BUDGET
  SAVE BUDGET

period 6 step 30 
  SAVE HEAD
  PRINT BUDGET
  SAVE BUDGET

period 7 step 31 
  SAVE HEAD
  PRINT BUDGET
  SAVE BUDGET

period 8 step 31 
  SAVE HEAD
  PRINT BUDGET
  SAVE BUDGET

period 9 step 30 
  SAVE HEAD
  PRINT BUDGET
  SAVE BUDGET

period 10 step 31 
  SAVE HEAD
  PRINT BUDGET
  SAVE BUDGET

period 11 step 30 
  SAVE HEAD
  PRINT BUDGET
  SAVE BUDGET

period 12 step 31 
  SAVE HEAD
  PRINT BUDGET
  SAVE BUDGET

period 13 step 31 
  SAVE HEAD
  PRINT BUDGET
  SAVE BUDGET

period 14 step 29 
  SAVE HEAD
  PRINT BUDGET
  SAVE BUDGET

period 15 step 31 
  SAVE HEAD
  PRINT BUDGET
  SAVE BUDGET

period 16 step 30 
  SAVE HEAD
  PRINT BUDGET
  SAVE BUDGET

period 17 step 31 
  SAVE HEAD
  PRINT BUDGET
  SAVE BUDGET

period 18 step 30 
  SAVE HEAD
  PRINT BUDGET
  SAVE BUDGET

period 19 step 31 
  SAVE HEAD
  PRINT BUDGET
  SAVE BUDGET

period 20 step 31 
  SAVE HEAD
  PRINT BUDGET
  SAVE BUDGET

period 21 step 30 
  SAVE HEAD
  PRINT BUDGET
  SAVE BUDGET

period 22 step 31 
  SAVE HEAD
  PRINT BUDGET
  SAVE BUDGET

period 23 step 30 
  SAVE HEAD
  PRINT BUDGET
  SAVE BUDGET

period 24 step 31 
  SAVE HEAD
  PRINT BUDGET
  SAVE BUDGET

period 25 step 31 
  SAVE HEAD
  PRINT BUDGET
  SAVE BUDGET

period 26 step 28 
  SAVE HEAD
  PRINT BUDGET
  SAVE BUDGET

period 27 step 31 
  SAVE HEAD
  PRINT BUDGET
  SAVE BUDGET

period 28 step 30 
  SAVE HEAD
  PRINT BUDGET
  SAVE BUDGET

period 29 step 31 
  SAVE HEAD
  PRINT BUDGET
  SAVE BUDGET

period 30 step 30 
  SAVE HEAD
  PRINT BUDGET
  SAVE BUDGET

period 31 step 31 
  SAVE HEAD
  PRINT BUDGET
  SAVE BUDGET

period 32 step 31 
  SAVE HEAD
  PRINT BUDGET
  SAVE BUDGET

period 33 step 30 
  SAVE HEAD
  PRINT BUDGET
  SAVE BUDGET

period 34 step 31 
  SAVE HEAD
  PRINT BUDGET
  SAVE BUDGET

period 35 step 30 
  SAVE HEAD
  PRINT BUDGET
  SAVE BUDGET

period 36 step 31 
  SAVE HEAD
  PRINT BUDGET
  SAVE BUDGET

period 37 step 31 
  SAVE HEAD
  PRINT BUDGET
  SAVE BUDGET

period 38 step 28 
  SAVE HEAD
  PRINT BUDGET
  SAVE BUDGET

period 39 step 31 
  SAVE HEAD
  PRINT BUDGET
  SAVE BUDGET

period 40 step 30 
  SAVE HEAD
  PRINT BUDGET
  SAVE BUDGET

period 41 step 31 
  SAVE HEAD
  PRINT BUDGET
  SAVE BUDGET

period 42 step 30 
  SAVE HEAD
  PRINT BUDGET
  SAVE BUDGET

period 43 step 31 
  SAVE HEAD
  PRINT BUDGET
  SAVE BUDGET

period 44 step 31 
  SAVE HEAD
  PRINT BUDGET
  SAVE BUDGET

period 45 step 30 
  SAVE HEAD
  PRINT BUDGET
  SAVE BUDGET

period 46 step 31 
  SAVE HEAD
  PRINT BUDGET
  SAVE BUDGET

period 47 step 30 
  SAVE HEAD
  PRINT BUDGET
  SAVE BUDGET

period 48 step 31 
  SAVE HEAD
  PRINT BUDGET
  SAVE BUDGET

period 49 step 31 
  SAVE HEAD
  PRINT BUDGET
  SAVE BUDGET

period 50 step 28 
  SAVE HEAD
  PRINT BUDGET
  SAVE BUDGET

period 51 step 31 
  SAVE HEAD
  PRINT BUDGET
  SAVE BUDGET

period 52 step 30 
  SAVE HEAD
  PRINT BUDGET
  SAVE BUDGET

period 53 step 31 
  SAVE HEAD
  PRINT BUDGET
  SAVE BUDGET

period 54 step 30 
  SAVE HEAD
  PRINT BUDGET
  SAVE BUDGET

period 55 step 31 
  SAVE HEAD
  PRINT BUDGET
  SAVE BUDGET

period 56 step 31 
  SAVE HEAD
  PRINT BUDGET
  SAVE BUDGET

period 57 step 30 
  SAVE HEAD
  PRINT BUDGET
  SAVE BUDGET

period 58 step 31 
  SAVE HEAD
  PRINT BUDGET
  SAVE BUDGET

period 59 step 30 
  SAVE HEAD
  PRINT BUDGET
  SAVE BUDGET

period 60 step 31 
  SAVE HEAD
  PRINT BUDGET
  SAVE BUDGET

period 61 step 31 
  SAVE HEAD
  PRINT BUDGET
  SAVE BUDGET

period 62 step 29 
  SAVE HEAD
  PRINT BUDGET
  SAVE BUDGET

period 63 step 31 
  SAVE HEAD
  PRINT BUDGET
  SAVE BUDGET

period 64 step 30 
  SAVE HEAD
  PRINT BUDGET
  SAVE BUDGET

period 65 step 31 
  SAVE HEAD
  PRINT BUDGET
  SAVE BUDGET

period 66 step 30 
  SAVE HEAD
  PRINT BUDGET
  SAVE BUDGET

period 67 step 31 
  SAVE HEAD
  PRINT BUDGET
  SAVE BUDGET

period 68 step 31 
  SAVE HEAD
  PRINT BUDGET
  SAVE BUDGET

period 69 step 30 
  SAVE HEAD
  PRINT BUDGET
  SAVE BUDGET

period 70 step 31 
  SAVE HEAD
  PRINT BUDGET
  SAVE BUDGET

period 71 step 30 
  SAVE HEAD
  PRINT BUDGET
  SAVE BUDGET

period 72 step 31 
  SAVE HEAD
  PRINT BUDGET
  SAVE BUDGET

period 73 step 31 
  SAVE HEAD
  PRINT BUDGET
  SAVE BUDGET

period 74 step 28 
  SAVE HEAD
  PRINT BUDGET
  SAVE BUDGET

period 75 step 31 
  SAVE HEAD
  PRINT BUDGET
  SAVE BUDGET

period 76 step 30 
  SAVE HEAD
  PRINT BUDGET
  SAVE BUDGET

period 77 step 31 
  SAVE HEAD
  PRINT BUDGET
  SAVE BUDGET

period 78 step 30 
  SAVE HEAD
  PRINT BUDGET
  SAVE BUDGET

period 79 step 31 
  SAVE HEAD
  PRINT BUDGET
  SAVE BUDGET

period 80 step 31 
  SAVE HEAD
  PRINT BUDGET
  SAVE BUDGET

period 81 step 30 
  SAVE HEAD
  PRINT BUDGET
  SAVE BUDGET

period 82 step 31 
  SAVE HEAD
  PRINT BUDGET
  SAVE BUDGET

period 83 step 30 
  SAVE HEAD
  PRINT BUDGET
  SAVE BUDGET

period 84 step 31 
  SAVE HEAD
  PRINT BUDGET
  SAVE BUDGET

period 85 step 31 
  SAVE HEAD
  PRINT BUDGET
  SAVE BUDGET

period 86 step 28 
  SAVE HEAD
  PRINT BUDGET
  SAVE BUDGET

period 87 step 31 
  SAVE HEAD
  PRINT BUDGET
  SAVE BUDGET

period 88 step 30 
  SAVE HEAD
  PRINT BUDGET
  SAVE BUDGET

period 89 step 31 
  SAVE HEAD
  PRINT BUDGET
  SAVE BUDGET

period 90 step 30 
  SAVE HEAD
  PRINT BUDGET
  SAVE BUDGET

period 91 step 31 
  SAVE HEAD
  PRINT BUDGET
  SAVE BUDGET

period 92 step 31 
  SAVE HEAD
  PRINT BUDGET
  SAVE BUDGET

period 93 step 30 
  SAVE HEAD
  PRINT BUDGET
  SAVE BUDGET

period 94 step 31 
  SAVE HEAD
  PRINT BUDGET
  SAVE BUDGET

period 95 step 30 
  SAVE HEAD
  PRINT BUDGET
  SAVE BUDGET

period 96 step 31 
  SAVE HEAD
  PRINT BUDGET
  SAVE BUDGET

period 97 step 31 
  SAVE HEAD
  PRINT BUDGET
  SAVE BUDGET

period 98 step 28 
  SAVE HEAD
  PRINT BUDGET
  SAVE BUDGET

period 99 step 31 
  SAVE HEAD
  PRINT BUDGET
  SAVE BUDGET

period 100 step 30 
  SAVE HEAD
  PRINT BUDGET
  SAVE BUDGET

period 101 step 31 
  SAVE HEAD
  PRINT BUDGET
  SAVE BUDGET

period 102 step 30 
  SAVE HEAD
  PRINT BUDGET
  SAVE BUDGET

period 103 step 31 
  SAVE HEAD
  PRINT BUDGET
  SAVE BUDGET

period 104 step 31 
  SAVE HEAD
  PRINT BUDGET
  SAVE BUDGET

period 105 step 30 
  SAVE HEAD
  PRINT BUDGET
  SAVE BUDGET

period 106 step 31 
  SAVE HEAD
  PRINT BUDGET
  SAVE BUDGET

period 107 step 30 
  SAVE HEAD
  PRINT BUDGET
  SAVE BUDGET

period 108 step 31 
  SAVE HEAD
  PRINT BUDGET
  SAVE BUDGET

period 109 step 31 
  SAVE HEAD
  PRINT BUDGET
  SAVE BUDGET

period 110 step 29 
  SAVE HEAD
  PRINT BUDGET
  SAVE BUDGET

period 111 step 31 
  SAVE HEAD
  PRINT BUDGET
  SAVE BUDGET

period 112 step 30 
  SAVE HEAD
  PRINT BUDGET
  SAVE BUDGET

period 113 step 31 
  SAVE HEAD
  PRINT BUDGET
  SAVE BUDGET

period 114 step 30 
  SAVE HEAD
  PRINT BUDGET
  SAVE BUDGET

period 115 step 31 
  SAVE HEAD
  PRINT BUDGET
  SAVE BUDGET

period 116 step 31 
  SAVE HEAD
  PRINT BUDGET
  SAVE BUDGET

period 117 step 30 
  SAVE HEAD
  PRINT BUDGET
  SAVE BUDGET

period 118 step 31 
  SAVE HEAD
  PRINT BUDGET
  SAVE BUDGET

period 119 step 30 
  SAVE HEAD
  PRINT BUDGET
  SAVE BUDGET

period 120 step 31 
  SAVE HEAD
  PRINT BUDGET
  SAVE BUDGET

period 121 step 31 
  SAVE HEAD
  PRINT BUDGET
  SAVE BUDGET

period 122 step 28 
  SAVE HEAD
  PRINT BUDGET
  SAVE BUDGET

period 123 step 31 
  SAVE HEAD
  PRINT BUDGET
  SAVE BUDGET

period 124 step 30 
  SAVE HEAD
  PRINT BUDGET
  SAVE BUDGET

period 125 step 31 
  SAVE HEAD
  PRINT BUDGET
  SAVE BUDGET

period 126 step 30 
  SAVE HEAD
  PRINT BUDGET
  SAVE BUDGET

period 127 step 31 
  SAVE HEAD
  PRINT BUDGET
  SAVE BUDGET

period 128 step 31 
  SAVE HEAD
  PRINT BUDGET
  SAVE BUDGET

period 129 step 30 
  SAVE HEAD
  PRINT BUDGET
  SAVE BUDGET

period 130 step 31 
  SAVE HEAD
  PRINT BUDGET
  SAVE BUDGET

period 131 step 30 
  SAVE HEAD
  PRINT BUDGET
  SAVE BUDGET

period 132 step 31 
  SAVE HEAD
  PRINT BUDGET
  SAVE BUDGET

period 133 step 31 
  SAVE HEAD
  PRINT BUDGET
  SAVE BUDGET

period 134 step 28 
  SAVE HEAD
  PRINT BUDGET
  SAVE BUDGET

period 135 step 31 
  SAVE HEAD
  PRINT BUDGET
  SAVE BUDGET

period 136 step 30 
  SAVE HEAD
  PRINT BUDGET
  SAVE BUDGET

period 137 step 31 
  SAVE HEAD
  PRINT BUDGET
  SAVE BUDGET

period 138 step 30 
  SAVE HEAD
  PRINT BUDGET
  SAVE BUDGET

period 139 step 31 
  SAVE HEAD
  PRINT BUDGET
  SAVE BUDGET

period 140 step 31 
  SAVE HEAD
  PRINT BUDGET
  SAVE BUDGET

period 141 step 30 
  SAVE HEAD
  PRINT BUDGET
  SAVE BUDGET

period 142 step 31 
  SAVE HEAD
  PRINT BUDGET
  SAVE BUDGET

period 143 step 30 
  SAVE HEAD
  PRINT BUDGET
  SAVE BUDGET

period 144 step 31 
  SAVE HEAD
  PRINT BUDGET
  SAVE BUDGET

period 145 step 31 
  SAVE HEAD
  PRINT BUDGET
  SAVE BUDGET

period 146 step 28 
  SAVE HEAD
  PRINT BUDGET
  SAVE BUDGET

period 147 step 31 
  SAVE HEAD
  PRINT BUDGET
  SAVE BUDGET

period 148 step 30 
  SAVE HEAD
  PRINT BUDGET
  SAVE BUDGET

period 149 step 31 
  SAVE HEAD
  PRINT BUDGET
  SAVE BUDGET

period 150 step 30 
  SAVE HEAD
  PRINT BUDGET
  SAVE BUDGET

period 151 step 31 
  SAVE HEAD
  PRINT BUDGET
  SAVE BUDGET

period 152 step 31 
  SAVE HEAD
  PRINT BUDGET
  SAVE BUDGET

period 153 step 30 
  SAVE HEAD
  PRINT BUDGET
  SAVE BUDGET

period 154 step 31 
  SAVE HEAD
  PRINT BUDGET
  SAVE BUDGET

period 155 step 30 
  SAVE HEAD
  PRINT BUDGET
  SAVE BUDGET

period 156 step 31 
  SAVE HEAD
  PRINT BUDGET
  SAVE BUDGET

period 157 step 31 
  SAVE HEAD
  PRINT BUDGET
  SAVE BUDGET

period 158 step 29 
  SAVE HEAD
  PRINT BUDGET
  SAVE BUDGET

period 159 step 31 
  SAVE HEAD
  PRINT BUDGET
  SAVE BUDGET

period 160 step 30 
  SAVE HEAD
  PRINT BUDGET
  SAVE BUDGET

period 161 step 31 
  SAVE HEAD
  PRINT BUDGET
  SAVE BUDGET

period 162 step 30 
  SAVE HEAD
  PRINT BUDGET
  SAVE BUDGET

period 163 step 31 
  SAVE HEAD
  PRINT BUDGET
  SAVE BUDGET

period 164 step 31 
  SAVE HEAD
  PRINT BUDGET
  SAVE BUDGET

period 165 step 30 
  SAVE HEAD
  PRINT BUDGET
  SAVE BUDGET

period 166 step 31 
  SAVE HEAD
  PRINT BUDGET
  SAVE BUDGET

period 167 step 30 
  SAVE HEAD
  PRINT BUDGET
  SAVE BUDGET

period 168 step 31 
  SAVE HEAD
  PRINT BUDGET
  SAVE BUDGET

period 169 step 31 
  SAVE HEAD
  PRINT BUDGET
  SAVE BUDGET

period 170 step 28 
  SAVE HEAD
  PRINT BUDGET
  SAVE BUDGET

period 171 step 31 
  SAVE HEAD
  PRINT BUDGET
  SAVE BUDGET

period 172 step 30 
  SAVE HEAD
  PRINT BUDGET
  SAVE BUDGET

period 173 step 31 
  SAVE HEAD
  PRINT BUDGET
  SAVE BUDGET

period 174 step 30 
  SAVE HEAD
  PRINT BUDGET
  SAVE BUDGET

period 175 step 31 
  SAVE HEAD
  PRINT BUDGET
  SAVE BUDGET

period 176 step 31 
  SAVE HEAD
  PRINT BUDGET
  SAVE BUDGET

period 177 step 30 
  SAVE HEAD
  PRINT BUDGET
  SAVE BUDGET

period 178 step 31 
  SAVE HEAD
  PRINT BUDGET
  SAVE BUDGET

period 179 step 30 
  SAVE HEAD
  PRINT BUDGET
  SAVE BUDGET

period 180 step 31 
  SAVE HEAD
  PRINT BUDGET
  SAVE BUDGET

period 181 step 31 
  SAVE HEAD
  PRINT BUDGET
  SAVE BUDGET

period 182 step 28 
  SAVE HEAD
  PRINT BUDGET
  SAVE BUDGET

period 183 step 31 
  SAVE HEAD
  PRINT BUDGET
  SAVE BUDGET

period 184 step 30 
  SAVE HEAD
  PRINT BUDGET
  SAVE BUDGET

period 185 step 31 
  SAVE HEAD
  PRINT BUDGET
  SAVE BUDGET

period 186 step 30 
  SAVE HEAD
  PRINT BUDGET
  SAVE BUDGET

period 187 step 31 
  SAVE HEAD
  PRINT BUDGET
  SAVE BUDGET

period 188 step 31 
  SAVE HEAD
  PRINT BUDGET
  SAVE BUDGET

period 189 step 30 
  SAVE HEAD
  PRINT BUDGET
  SAVE BUDGET

period 190 step 31 
  SAVE HEAD
  PRINT BUDGET
  SAVE BUDGET

period 191 step 30 
  SAVE HEAD
  PRINT BUDGET
  SAVE BUDGET

period 192 step 31 
  SAVE HEAD
  PRINT BUDGET
  SAVE BUDGET

period 193 step 31 
  SAVE HEAD
  PRINT BUDGET
  SAVE BUDGET

period 194 step 28 
  SAVE HEAD
  PRINT BUDGET
  SAVE BUDGET

period 195 step 31 
  SAVE HEAD
  PRINT BUDGET
  SAVE BUDGET

period 196 step 30 
  SAVE HEAD
  PRINT BUDGET
  SAVE BUDGET

period 197 step 31 
  SAVE HEAD
  PRINT BUDGET
  SAVE BUDGET

period 198 step 30 
  SAVE HEAD
  PRINT BUDGET
  SAVE BUDGET

period 199 step 31 
  SAVE HEAD
  PRINT BUDGET
  SAVE BUDGET

period 200 step 31 
  SAVE HEAD
  PRINT BUDGET
  SAVE BUDGET

period 201 step 30 
  SAVE HEAD
  PRINT BUDGET
  SAVE BUDGET

period 202 step 31 
  SAVE HEAD
  PRINT BUDGET
  SAVE BUDGET

period 203 step 30 
  SAVE HEAD
  PRINT BUDGET
  SAVE BUDGET

period 204 step 31 
  SAVE HEAD
  PRINT BUDGET
  SAVE BUDGET

period 205 step 31 
  SAVE HEAD
  PRINT BUDGET
  SAVE BUDGET

period 206 step 29 
  SAVE HEAD
  PRINT BUDGET
  SAVE BUDGET

period 207 step 31 
  SAVE HEAD
  PRINT BUDGET
  SAVE BUDGET

period 208 step 30 
  SAVE HEAD
  PRINT BUDGET
  SAVE BUDGET

period 209 step 31 
  SAVE HEAD
  PRINT BUDGET
  SAVE BUDGET

period 210 step 30 
  SAVE HEAD
  PRINT BUDGET
  SAVE BUDGET

period 211 step 31 
  SAVE HEAD
  PRINT BUDGET
  SAVE BUDGET

period 212 step 31 
  SAVE HEAD
  PRINT BUDGET
  SAVE BUDGET

period 213 step 30 
  SAVE HEAD
  PRINT BUDGET
  SAVE BUDGET

period 214 step 31 
  SAVE HEAD
  PRINT BUDGET
  SAVE BUDGET

period 215 step 30 
  SAVE HEAD
  PRINT BUDGET
  SAVE BUDGET

period 216 step 31 
  SAVE HEAD
  PRINT BUDGET
  SAVE BUDGET

period 217 step 31 
  SAVE HEAD
  PRINT BUDGET
  SAVE BUDGET

period 218 step 28 
  SAVE HEAD
  PRINT BUDGET
  SAVE BUDGET

period 219 step 31 
  SAVE HEAD
  PRINT BUDGET
  SAVE BUDGET

period 220 step 30 
  SAVE HEAD
  PRINT BUDGET
  SAVE BUDGET

period 221 step 31 
  SAVE HEAD
  PRINT BUDGET
  SAVE BUDGET

period 222 step 30 
  SAVE HEAD
  PRINT BUDGET
  SAVE BUDGET

period 223 step 31 
  SAVE HEAD
  PRINT BUDGET
  SAVE BUDGET

period 224 step 31 
  SAVE HEAD
  PRINT BUDGET
  SAVE BUDGET

period 225 step 30 
  SAVE HEAD
  PRINT BUDGET
  SAVE BUDGET

period 226 step 31 
  SAVE HEAD
  PRINT BUDGET
  SAVE BUDGET

period 227 step 30 
  SAVE HEAD
  PRINT BUDGET
  SAVE BUDGET

period 228 step 31 
  SAVE HEAD
  PRINT BUDGET
  SAVE BUDGET

period 229 step 31 
  SAVE HEAD
  PRINT BUDGET
  SAVE BUDGET

period 230 step 28 
  SAVE HEAD
  PRINT BUDGET
  SAVE BUDGET

period 231 step 31 
  SAVE HEAD
  PRINT BUDGET
  SAVE BUDGET

period 232 step 30 
  SAVE HEAD
  PRINT BUDGET
  SAVE BUDGET

period 233 step 31 
  SAVE HEAD
  PRINT BUDGET
  SAVE BUDGET

period 234 step 30 
  SAVE HEAD
  PRINT BUDGET
  SAVE BUDGET

period 235 step 31 
  SAVE HEAD
  PRINT BUDGET
  SAVE BUDGET

period 236 step 31 
  SAVE HEAD
  PRINT BUDGET
  SAVE BUDGET

period 237 step 30 
  SAVE HEAD
  PRINT BUDGET
  SAVE BUDGET

period 238 step 31 
  SAVE HEAD
  PRINT BUDGET
  SAVE BUDGET

period 239 step 30 
  SAVE HEAD
  PRINT BUDGET
  SAVE BUDGET

period 240 step 31 
  SAVE HEAD
  PRINT BUDGET
  SAVE BUDGET

period 241 step 31 
  SAVE HEAD
  PRINT BUDGET
  SAVE BUDGET

period 242 step 28 
  SAVE HEAD
  PRINT BUDGET
  SAVE BUDGET

period 243 step 31 
  SAVE HEAD
  PRINT BUDGET
  SAVE BUDGET

period 244 step 30 
  SAVE HEAD
  PRINT BUDGET
  SAVE BUDGET

period 245 step 31 
  SAVE HEAD
  PRINT BUDGET
  SAVE BUDGET

period 246 step 30 
  SAVE HEAD
  PRINT BUDGET
  SAVE BUDGET

period 247 step 31 
  SAVE HEAD
  PRINT BUDGET
  SAVE BUDGET

period 248 step 31 
  SAVE HEAD
  PRINT BUDGET
  SAVE BUDGET

period 249 step 30 
  SAVE HEAD
  PRINT BUDGET
  SAVE BUDGET

period 250 step 31 
  SAVE HEAD
  PRINT BUDGET
  SAVE BUDGET

period 251 step 30 
  SAVE HEAD
  PRINT BUDGET
  SAVE BUDGET

period 252 step 31 
  SAVE HEAD
  PRINT BUDGET
  SAVE BUDGET

period 253 step 31 
  SAVE HEAD
  PRINT BUDGET
  SAVE BUDGET

period 254 step 29 
  SAVE HEAD
  PRINT BUDGET
  SAVE BUDGET

period 255 step 31 
  SAVE HEAD
  PRINT BUDGET
  SAVE BUDGET

period 256 step 30 
  SAVE HEAD
  PRINT BUDGET
  SAVE BUDGET

period 257 step 31 
  SAVE HEAD
  PRINT BUDGET
  SAVE BUDGET

period 258 step 30 
  SAVE HEAD
  PRINT BUDGET
  SAVE BUDGET

period 259 step 31 
  SAVE HEAD
  PRINT BUDGET
  SAVE BUDGET

period 260 step 31 
  SAVE HEAD
  PRINT BUDGET
  SAVE BUDGET

period 261 step 30 
  SAVE HEAD
  PRINT BUDGET
  SAVE BUDGET

period 262 step 31 
  SAVE HEAD
  PRINT BUDGET
  SAVE BUDGET

period 263 step 30 
  SAVE HEAD
  PRINT BUDGET
  SAVE BUDGET

period 264 step 31 
  SAVE HEAD
  PRINT BUDGET
  SAVE BUDGET

period 265 step 31 
  SAVE HEAD
  PRINT BUDGET
  SAVE BUDGET

period 266 step 28 
  SAVE HEAD
  PRINT BUDGET
  SAVE BUDGET

period 267 step 31 
  SAVE HEAD
  PRINT BUDGET
  SAVE BUDGET

period 268 step 30 
  SAVE HEAD
  PRINT BUDGET
  SAVE BUDGET

period 269 step 31 
  SAVE HEAD
  PRINT BUDGET
  SAVE BUDGET

period 270 step 30 
  SAVE HEAD
  PRINT BUDGET
  SAVE BUDGET

period 271 step 31 
  SAVE HEAD
  PRINT BUDGET
  SAVE BUDGET

period 272 step 31 
  SAVE HEAD
  PRINT BUDGET
  SAVE BUDGET

period 273 step 30 
  SAVE HEAD
  PRINT BUDGET
  SAVE BUDGET

period 274 step 31 
  SAVE HEAD
  PRINT BUDGET
  SAVE BUDGET

period 275 step 30 
  SAVE HEAD
  PRINT BUDGET
  SAVE BUDGET

period 276 step 31 
  SAVE HEAD
  PRINT BUDGET
  SAVE BUDGET

period 277 step 1 
  SAVE BUDGET

period 277 step 2 
  SAVE BUDGET

period 277 step 3 
  SAVE BUDGET

period 277 step 4 
  SAVE BUDGET

period 277 step 5 
  SAVE BUDGET

period 277 step 6 
  SAVE BUDGET

period 277 step 7 
  SAVE BUDGET

period 277 step 8 
  SAVE BUDGET

period 277 step 9 
  SAVE BUDGET

period 277 step 10 
  SAVE BUDGET

period 277 step 11 
  SAVE BUDGET

period 277 step 12 
  SAVE BUDGET

period 277 step 13 
  SAVE BUDGET

period 277 step 14 
  SAVE BUDGET

period 277 step 15 
  SAVE BUDGET

period 277 step 16 
  SAVE BUDGET

period 277 step 17 
  SAVE BUDGET

period 277 step 18 
  SAVE BUDGET

period 277 step 19 
  SAVE BUDGET

period 277 step 20 
  SAVE BUDGET

period 277 step 21 
  SAVE BUDGET

period 277 step 22 
  SAVE BUDGET

period 277 step 23 
  SAVE BUDGET

period 277 step 24 
  SAVE BUDGET

period 277 step 25 
  SAVE BUDGET

period 277 step 26 
  SAVE BUDGET

period 277 step 27 
  SAVE BUDGET

period 277 step 28 
  SAVE BUDGET

period 277 step 29 
  SAVE BUDGET

period 277 step 30 
  SAVE BUDGET

period 277 step 31 
  SAVE HEAD
  PRINT BUDGET
  SAVE BUDGET

period 278 step 1 
  SAVE BUDGET

period 278 step 2 
  SAVE BUDGET

period 278 step 3 
  SAVE BUDGET

period 278 step 4 
  SAVE BUDGET

period 278 step 5 
  SAVE BUDGET

period 278 step 6 
  SAVE BUDGET

period 278 step 7 
  SAVE BUDGET

period 278 step 8 
  SAVE BUDGET

period 278 step 9 
  SAVE BUDGET

period 278 step 10 
  SAVE BUDGET

period 278 step 11 
  SAVE BUDGET

period 278 step 12 
  SAVE BUDGET

period 278 step 13 
  SAVE BUDGET

period 278 step 14 
  SAVE BUDGET

period 278 step 15 
  SAVE BUDGET

period 278 step 16 
  SAVE BUDGET

period 278 step 17 
  SAVE BUDGET

period 278 step 18 
  SAVE BUDGET

period 278 step 19 
  SAVE BUDGET

period 278 step 20 
  SAVE BUDGET

period 278 step 21 
  SAVE BUDGET

period 278 step 22 
  SAVE BUDGET

period 278 step 23 
  SAVE BUDGET

period 278 step 24 
  SAVE BUDGET

period 278 step 25 
  SAVE BUDGET

period 278 step 26 
  SAVE BUDGET

period 278 step 27 
  SAVE BUDGET

period 278 step 28 
  SAVE HEAD
  PRINT BUDGET
  SAVE BUDGET

period 279 step 1 
  SAVE BUDGET

period 279 step 2 
  SAVE BUDGET

period 279 step 3 
  SAVE BUDGET

period 279 step 4 
  SAVE BUDGET

period 279 step 5 
  SAVE BUDGET

period 279 step 6 
  SAVE BUDGET

period 279 step 7 
  SAVE BUDGET

period 279 step 8 
  SAVE BUDGET

period 279 step 9 
  SAVE BUDGET

period 279 step 10 
  SAVE BUDGET

period 279 step 11 
  SAVE BUDGET

period 279 step 12 
  SAVE BUDGET

period 279 step 13 
  SAVE BUDGET

period 279 step 14 
  SAVE BUDGET

period 279 step 15 
  SAVE BUDGET

period 279 step 16 
  SAVE BUDGET

period 279 step 17 
  SAVE BUDGET

period 279 step 18 
  SAVE BUDGET

period 279 step 19 
  SAVE BUDGET

period 279 step 20 
  SAVE BUDGET

period 279 step 21 
  SAVE BUDGET

period 279 step 22 
  SAVE BUDGET

period 279 step 23 
  SAVE BUDGET

period 279 step 24 
  SAVE BUDGET

period 279 step 25 
  SAVE BUDGET

period 279 step 26 
  SAVE BUDGET

period 279 step 27 
  SAVE BUDGET

period 279 step 28 
  SAVE BUDGET

period 279 step 29 
  SAVE BUDGET

period 279 step 30 
  SAVE BUDGET

period 279 step 31 
  SAVE HEAD
  PRINT BUDGET
  SAVE BUDGET

period 280 step 1 
  SAVE BUDGET

period 280 step 2 
  SAVE BUDGET

period 280 step 3 
  SAVE BUDGET

period 280 step 4 
  SAVE BUDGET

period 280 step 5 
  SAVE BUDGET

period 280 step 6 
  SAVE BUDGET

period 280 step 7 
  SAVE BUDGET

period 280 step 8 
  SAVE BUDGET

period 280 step 9 
  SAVE BUDGET

period 280 step 10 
  SAVE BUDGET

period 280 step 11 
  SAVE BUDGET

period 280 step 12 
  SAVE BUDGET

period 280 step 13 
  SAVE BUDGET

period 280 step 14 
  SAVE BUDGET

period 280 step 15 
  SAVE BUDGET

period 280 step 16 
  SAVE BUDGET

period 280 step 17 
  SAVE BUDGET

period 280 step 18 
  SAVE BUDGET

period 280 step 19 
  SAVE BUDGET

period 280 step 20 
  SAVE BUDGET

period 280 step 21 
  SAVE BUDGET

period 280 step 22 
  SAVE BUDGET

period 280 step 23 
  SAVE BUDGET

period 280 step 24 
  SAVE BUDGET

period 280 step 25 
  SAVE BUDGET

period 280 step 26 
  SAVE BUDGET

period 280 step 27 
  SAVE BUDGET

period 280 step 28 
  SAVE BUDGET

period 280 step 29 
  SAVE BUDGET

period 280 step 30 
  SAVE HEAD
  PRINT BUDGET
  SAVE BUDGET

period 281 step 1 
  SAVE BUDGET

period 281 step 2 
  SAVE BUDGET

period 281 step 3 
  SAVE BUDGET

period 281 step 4 
  SAVE BUDGET

period 281 step 5 
  SAVE BUDGET

period 281 step 6 
  SAVE BUDGET

period 281 step 7 
  SAVE BUDGET

period 281 step 8 
  SAVE BUDGET

period 281 step 9 
  SAVE BUDGET

period 281 step 10 
  SAVE BUDGET

period 281 step 11 
  SAVE BUDGET

period 281 step 12 
  SAVE BUDGET

period 281 step 13 
  SAVE BUDGET

period 281 step 14 
  SAVE BUDGET

period 281 step 15 
  SAVE BUDGET

period 281 step 16 
  SAVE BUDGET

period 281 step 17 
  SAVE BUDGET

period 281 step 18 
  SAVE BUDGET

period 281 step 19 
  SAVE BUDGET

period 281 step 20 
  SAVE BUDGET

period 281 step 21 
  SAVE BUDGET

period 281 step 22 
  SAVE BUDGET

period 281 step 23 
  SAVE BUDGET

period 281 step 24 
  SAVE BUDGET

period 281 step 25 
  SAVE BUDGET

period 281 step 26 
  SAVE BUDGET

period 281 step 27 
  SAVE BUDGET

period 281 step 28 
  SAVE BUDGET

period 281 step 29 
  SAVE BUDGET

period 281 step 30 
  SAVE BUDGET

period 281 step 31 
  SAVE HEAD
  PRINT BUDGET
  SAVE BUDGET

period 282 step 1 
  SAVE BUDGET

period 282 step 2 
  SAVE BUDGET

period 282 step 3 
  SAVE BUDGET

period 282 step 4 
  SAVE BUDGET

period 282 step 5 
  SAVE BUDGET

period 282 step 6 
  SAVE BUDGET

period 282 step 7 
  SAVE BUDGET

period 282 step 8 
  SAVE BUDGET

period 282 step 9 
  SAVE BUDGET

period 282 step 10 
  SAVE BUDGET

period 282 step 11 
  SAVE BUDGET

period 282 step 12 
  SAVE BUDGET

period 282 step 13 
  SAVE BUDGET

period 282 step 14 
  SAVE BUDGET

period 282 step 15 
  SAVE BUDGET

period 282 step 16 
  SAVE BUDGET

period 282 step 17 
  SAVE BUDGET

period 282 step 18 
  SAVE BUDGET

period 282 step 19 
  SAVE BUDGET

period 282 step 20 
  SAVE BUDGET

period 282 step 21 
  SAVE BUDGET

period 282 step 22 
  SAVE BUDGET

period 282 step 23 
  SAVE BUDGET

period 282 step 24 
  SAVE BUDGET

period 282 step 25 
  SAVE BUDGET

period 282 step 26 
  SAVE BUDGET

period 282 step 27 
  SAVE BUDGET

period 282 step 28 
  SAVE BUDGET

period 282 step 29 
  SAVE BUDGET

period 282 step 30 
  SAVE HEAD
  PRINT BUDGET
  SAVE BUDGET

period 283 step 1 
  SAVE BUDGET

period 283 step 2 
  SAVE BUDGET

period 283 step 3 
  SAVE BUDGET

period 283 step 4 
  SAVE BUDGET

period 283 step 5 
  SAVE BUDGET

period 283 step 6 
  SAVE BUDGET

period 283 step 7 
  SAVE BUDGET

period 283 step 8 
  SAVE BUDGET

period 283 step 9 
  SAVE BUDGET

period 283 step 10 
  SAVE BUDGET

period 283 step 11 
  SAVE BUDGET

period 283 step 12 
  SAVE BUDGET

period 283 step 13 
  SAVE BUDGET

period 283 step 14 
  SAVE BUDGET

period 283 step 15 
  SAVE BUDGET

period 283 step 16 
  SAVE BUDGET

period 283 step 17 
  SAVE BUDGET

period 283 step 18 
  SAVE BUDGET

period 283 step 19 
  SAVE BUDGET

period 283 step 20 
  SAVE BUDGET

period 283 step 21 
  SAVE BUDGET

period 283 step 22 
  SAVE BUDGET

period 283 step 23 
  SAVE BUDGET

period 283 step 24 
  SAVE BUDGET

period 283 step 25 
  SAVE BUDGET

period 283 step 26 
  SAVE BUDGET

period 283 step 27 
  SAVE BUDGET

period 283 step 28 
  SAVE BUDGET

period 283 step 29 
  SAVE BUDGET

period 283 step 30 
  SAVE BUDGET

period 283 step 31 
  SAVE HEAD
  PRINT BUDGET
  SAVE BUDGET

period 284 step 1 
  SAVE BUDGET

period 284 step 2 
  SAVE BUDGET

period 284 step 3 
  SAVE BUDGET

period 284 step 4 
  SAVE BUDGET

period 284 step 5 
  SAVE BUDGET

period 284 step 6 
  SAVE BUDGET

period 284 step 7 
  SAVE BUDGET

period 284 step 8 
  SAVE BUDGET

period 284 step 9 
  SAVE BUDGET

period 284 step 10 
  SAVE BUDGET

period 284 step 11 
  SAVE BUDGET

period 284 step 12 
  SAVE BUDGET

period 284 step 13 
  SAVE BUDGET

period 284 step 14 
  SAVE BUDGET

period 284 step 15 
  SAVE BUDGET

period 284 step 16 
  SAVE BUDGET

period 284 step 17 
  SAVE BUDGET

period 284 step 18 
  SAVE BUDGET

period 284 step 19 
  SAVE BUDGET

period 284 step 20 
  SAVE BUDGET

period 284 step 21 
  SAVE BUDGET

period 284 step 22 
  SAVE BUDGET

period 284 step 23 
  SAVE BUDGET

period 284 step 24 
  SAVE BUDGET

period 284 step 25 
  SAVE BUDGET

period 284 step 26 
  SAVE BUDGET

period 284 step 27 
  SAVE BUDGET

period 284 step 28 
  SAVE BUDGET

period 284 step 29 
  SAVE BUDGET

period 284 step 30 
  SAVE BUDGET

period 284 step 31 
  SAVE HEAD
  PRINT BUDGET
  SAVE BUDGET

period 285 step 1 
  SAVE BUDGET

period 285 step 2 
  SAVE BUDGET

period 285 step 3 
  SAVE BUDGET

period 285 step 4 
  SAVE BUDGET

period 285 step 5 
  SAVE BUDGET

period 285 step 6 
  SAVE BUDGET

period 285 step 7 
  SAVE BUDGET

period 285 step 8 
  SAVE BUDGET

period 285 step 9 
  SAVE BUDGET

period 285 step 10 
  SAVE BUDGET

period 285 step 11 
  SAVE BUDGET

period 285 step 12 
  SAVE BUDGET

period 285 step 13 
  SAVE BUDGET

period 285 step 14 
  SAVE BUDGET

period 285 step 15 
  SAVE BUDGET

period 285 step 16 
  SAVE BUDGET

period 285 step 17 
  SAVE BUDGET

period 285 step 18 
  SAVE BUDGET

period 285 step 19 
  SAVE BUDGET

period 285 step 20 
  SAVE BUDGET

period 285 step 21 
  SAVE BUDGET

period 285 step 22 
  SAVE BUDGET

period 285 step 23 
  SAVE BUDGET

period 285 step 24 
  SAVE BUDGET

period 285 step 25 
  SAVE BUDGET

period 285 step 26 
  SAVE BUDGET

period 285 step 27 
  SAVE BUDGET

period 285 step 28 
  SAVE BUDGET

period 285 step 29 
  SAVE BUDGET

period 285 step 30 
  SAVE HEAD
  PRINT BUDGET
  SAVE BUDGET

period 286 step 1 
  SAVE BUDGET

period 286 step 2 
  SAVE BUDGET

period 286 step 3 
  SAVE BUDGET

period 286 step 4 
  SAVE BUDGET

period 286 step 5 
  SAVE BUDGET

period 286 step 6 
  SAVE BUDGET

period 286 step 7 
  SAVE BUDGET

period 286 step 8 
  SAVE BUDGET

period 286 step 9 
  SAVE BUDGET

period 286 step 10 
  SAVE BUDGET

period 286 step 11 
  SAVE BUDGET

period 286 step 12 
  SAVE BUDGET

period 286 step 13 
  SAVE BUDGET

period 286 step 14 
  SAVE BUDGET

period 286 step 15 
  SAVE BUDGET

period 286 step 16 
  SAVE BUDGET

period 286 step 17 
  SAVE BUDGET

period 286 step 18 
  SAVE BUDGET

period 286 step 19 
  SAVE BUDGET

period 286 step 20 
  SAVE BUDGET

period 286 step 21 
  SAVE BUDGET

period 286 step 22 
  SAVE BUDGET

period 286 step 23 
  SAVE BUDGET

period 286 step 24 
  SAVE BUDGET

period 286 step 25 
  SAVE BUDGET

period 286 step 26 
  SAVE BUDGET

period 286 step 27 
  SAVE BUDGET

period 286 step 28 
  SAVE BUDGET

period 286 step 29 
  SAVE BUDGET

period 286 step 30 
  SAVE BUDGET

period 286 step 31 
  SAVE HEAD
  PRINT BUDGET
  SAVE BUDGET

period 287 step 1 
  SAVE BUDGET

period 287 step 2 
  SAVE BUDGET

period 287 step 3 
  SAVE BUDGET

period 287 step 4 
  SAVE BUDGET

period 287 step 5 
  SAVE BUDGET

period 287 step 6 
  SAVE BUDGET

period 287 step 7 
  SAVE BUDGET

period 287 step 8 
  SAVE BUDGET

period 287 step 9 
  SAVE BUDGET

period 287 step 10 
  SAVE BUDGET

period 287 step 11 
  SAVE BUDGET

period 287 step 12 
  SAVE BUDGET

period 287 step 13 
  SAVE BUDGET

period 287 step 14 
  SAVE BUDGET

period 287 step 15 
  SAVE BUDGET

period 287 step 16 
  SAVE BUDGET

period 287 step 17 
  SAVE BUDGET

period 287 step 18 
  SAVE BUDGET

period 287 step 19 
  SAVE BUDGET

period 287 step 20 
  SAVE BUDGET

period 287 step 21 
  SAVE BUDGET

period 287 step 22 
  SAVE BUDGET

period 287 step 23 
  SAVE BUDGET

period 287 step 24 
  SAVE BUDGET

period 287 step 25 
  SAVE BUDGET

period 287 step 26 
  SAVE BUDGET

period 287 step 27 
  SAVE BUDGET

period 287 step 28 
  SAVE BUDGET

period 287 step 29 
  SAVE BUDGET

period 287 step 30 
  SAVE HEAD
  PRINT BUDGET
  SAVE BUDGET

period 288 step 1 
  SAVE BUDGET

period 288 step 2 
  SAVE BUDGET

period 288 step 3 
  SAVE BUDGET

period 288 step 4 
  SAVE BUDGET

period 288 step 5 
  SAVE BUDGET

period 288 step 6 
  SAVE BUDGET

period 288 step 7 
  SAVE BUDGET

period 288 step 8 
  SAVE BUDGET

period 288 step 9 
  SAVE BUDGET

period 288 step 10 
  SAVE BUDGET

period 288 step 11 
  SAVE BUDGET

period 288 step 12 
  SAVE BUDGET

period 288 step 13 
  SAVE BUDGET

period 288 step 14 
  SAVE BUDGET

period 288 step 15 
  SAVE BUDGET

period 288 step 16 
  SAVE BUDGET

period 288 step 17 
  SAVE BUDGET

period 288 step 18 
  SAVE BUDGET

period 288 step 19 
  SAVE BUDGET

period 288 step 20 
  SAVE BUDGET

period 288 step 21 
  SAVE BUDGET

period 288 step 22 
  SAVE BUDGET

period 288 step 23 
  SAVE BUDGET

period 288 step 24 
  SAVE BUDGET

period 288 step 25 
  SAVE BUDGET

period 288 step 26 
  SAVE BUDGET

period 288 step 27 
  SAVE BUDGET

period 288 step 28 