# OC package for  MODFLOW-NWT, generated by Flopy.
HEAD PRINT FORMAT   0
HEAD SAVE UNIT    51
DRAWDOWN PRINT FORMAT   0
COMPACT BUDGET AUX

period 637 step 31 
  SAVE HEAD
  PRINT BUDGET
  SAVE BUDGET

period 638 step 29 
  SAVE HEAD
  PRINT BUDGET
  SAVE BUDGET

period 639 step 31 
  SAVE HEAD
  PRINT BUDGET
  SAVE BUDGET

period 640 step 30 
  SAVE HEAD
  PRINT BUDGET
  SAVE BUDGET

period 641 step 31 
  SAVE HEAD
  PRINT BUDGET
  SAVE BUDGET

period 642 step 30 
  SAVE HEAD
  PRINT BUDGET
  SAVE BUDGET

period 643 step 31 
  SAVE HEAD
  PRINT BUDGET
  SAVE BUDGET

period 644 step 31 
  SAVE HEAD
  PRINT BUDGET
  SAVE BUDGET

period 645 step 30 
  SAVE HEAD
  PRINT BUDGET
  SAVE BUDGET

period 646 step 31 
  SAVE HEAD
  PRINT BUDGET
  SAVE BUDGET

period 647 step 30 
  SAVE HEAD
  PRINT BUDGET
  SAVE BUDGET

period 648 step 31 
  SAVE HEAD
  PRINT BUDGET
  SAVE BUDGET

period 649 step 31 
  SAVE HEAD
  PRINT BUDGET
  SAVE BUDGET

period 650 step 28 
  SAVE HEAD
  PRINT BUDGET
  SAVE BUDGET

period 651 step 31 
  SAVE HEAD
  PRINT BUDGET
  SAVE BUDGET

period 652 step 30 
  SAVE HEAD
  PRINT BUDGET
  SAVE BUDGET

period 653 step 31 
  SAVE HEAD
  PRINT BUDGET
  SAVE BUDGET

period 654 step 30 
  SAVE HEAD
  PRINT BUDGET
  SAVE BUDGET

period 655 step 31 
  SAVE HEAD
  PRINT BUDGET
  SAVE BUDGET

period 656 step 31 
  SAVE HEAD
  PRINT BUDGET
  SAVE BUDGET

period 657 step 30 
  SAVE HEAD
  PRINT BUDGET
  SAVE BUDGET

period 658 step 31 
  SAVE HEAD
  PRINT BUDGET
  SAVE BUDGET

period 659 step 30 
  SAVE HEAD
  PRINT BUDGET
  SAVE BUDGET

period 660 step 31 
  SAVE HEAD
  PRINT BUDGET
  SAVE BUDGET

period 661 step 31 
  SAVE HEAD
  PRINT BUDGET
  SAVE BUDGET

period 662 step 28 
  SAVE HEAD
  PRINT BUDGET
  SAVE BUDGET

period 663 step 31 
  SAVE HEAD
  PRINT BUDGET
  SAVE BUDGET

period 664 step 30 
  SAVE HEAD
  PRINT BUDGET
  SAVE BUDGET

period 665 step 31 
  SAVE HEAD
  PRINT BUDGET
  SAVE BUDGET

period 666 step 30 
  SAVE HEAD
  PRINT BUDGET
  SAVE BUDGET

period 667 step 31 
  SAVE HEAD
  PRINT BUDGET
  SAVE BUDGET

period 668 step 31 
  SAVE HEAD
  PRINT BUDGET
  SAVE BUDGET

period 669 step 30 
  SAVE HEAD
  PRINT BUDGET
  SAVE BUDGET

period 670 step 31 
  SAVE HEAD
  PRINT BUDGET
  SAVE BUDGET

period 671 step 30 
  SAVE HEAD
  PRINT BUDGET
  SAVE BUDGET

period 672 step 31 
  SAVE HEAD
  PRINT BUDGET
  SAVE BUDGET

period 673 step 31 
  SAVE HEAD
  PRINT BUDGET
  SAVE BUDGET

period 674 step 28 
  SAVE HEAD
  PRINT BUDGET
  SAVE BUDGET

period 675 step 31 
  SAVE HEAD
  PRINT BUDGET
  SAVE BUDGET

period 676 step 30 
  SAVE HEAD
  PRINT BUDGET
  SAVE BUDGET

period 677 step 31 
  SAVE HEAD
  PRINT BUDGET
  SAVE BUDGET

period 678 step 30 
  SAVE HEAD
  PRINT BUDGET
  SAVE BUDGET

period 679 step 31 
  SAVE HEAD
  PRINT BUDGET
  SAVE BUDGET

period 680 step 31 
  SAVE HEAD
  PRINT BUDGET
  SAVE BUDGET

period 681 step 30 
  SAVE HEAD
  PRINT BUDGET
  SAVE BUDGET

period 682 step 31 
  SAVE HEAD
  PRINT BUDGET
  SAVE BUDGET

period 683 step 30 
  SAVE HEAD
  PRINT BUDGET
  SAVE BUDGET

period 684 step 31 
  SAVE HEAD
  PRINT BUDGET
  SAVE BUDGET

period 685 step 31 
  SAVE HEAD
  PRINT BUDGET
  SAVE BUDGET

period 686 step 29 
  SAVE HEAD
  PRINT BUDGET
  SAVE BUDGET

period 687 step 31 
  SAVE HEAD
  PRINT BUDGET
  SAVE BUDGET

period 688 step 30 
  SAVE HEAD
  PRINT BUDGET
  SAVE BUDGET

period 689 step 31 
  SAVE HEAD
  PRINT BUDGET
  SAVE BUDGET

period 690 step 30 
  SAVE HEAD
  PRINT BUDGET
  SAVE BUDGET

period 691 step 31 
  SAVE HEAD
  PRINT BUDGET
  SAVE BUDGET

period 692 step 31 
  SAVE HEAD
  PRINT BUDGET
  SAVE BUDGET

period 693 step 30 
  SAVE HEAD
  PRINT BUDGET
  SAVE BUDGET

period 694 step 31 
  SAVE HEAD
  PRINT BUDGET
  SAVE BUDGET

period 695 step 30 
  SAVE HEAD
  PRINT BUDGET
  SAVE BUDGET

period 696 step 31 
  SAVE HEAD
  PRINT BUDGET
  SAVE BUDGET

period 697 step 31 
  SAVE HEAD
  PRINT BUDGET
  SAVE BUDGET

period 698 step 28 
  SAVE HEAD
  PRINT BUDGET
  SAVE BUDGET

period 699 step 31 
  SAVE HEAD
  PRINT BUDGET
  SAVE BUDGET

period 700 step 30 
  SAVE HEAD
  PRINT BUDGET
  SAVE BUDGET

period 701 step 31 
  SAVE HEAD
  PRINT BUDGET
  SAVE BUDGET

period 702 step 30 
  SAVE HEAD
  PRINT BUDGET
  SAVE BUDGET

period 703 step 31 
  SAVE HEAD
  PRINT BUDGET
  SAVE BUDGET

period 704 step 31 
  SAVE HEAD
  PRINT BUDGET
  SAVE BUDGET

period 705 step 30 
  SAVE HEAD
  PRINT BUDGET
  SAVE BUDGET

period 706 step 31 
  SAVE HEAD
  PRINT BUDGET
  SAVE BUDGET

period 707 step 30 
  SAVE HEAD
  PRINT BUDGET
  SAVE BUDGET

period 708 step 31 
  SAVE HEAD
  PRINT BUDGET
  SAVE BUDGET

period 709 step 31 
  SAVE HEAD
  PRINT BUDGET
  SAVE BUDGET

period 710 step 28 
  SAVE HEAD
  PRINT BUDGET
  SAVE BUDGET

period 711 step 31 
  SAVE HEAD
  PRINT BUDGET
  SAVE BUDGET

period 712 step 30 
  SAVE HEAD
  PRINT BUDGET
  SAVE BUDGET

period 713 step 31 
  SAVE HEAD
  PRINT BUDGET
  SAVE BUDGET

period 714 step 30 
  SAVE HEAD
  PRINT BUDGET
  SAVE BUDGET

period 715 step 31 
  SAVE HEAD
  PRINT BUDGET
  SAVE BUDGET

period 716 step 31 
  SAVE HEAD
  PRINT BUDGET
  SAVE BUDGET

period 717 step 30 
  SAVE HEAD
  PRINT BUDGET
  SAVE BUDGET

period 718 step 31 
  SAVE HEAD
  PRINT BUDGET
  SAVE BUDGET

period 719 step 30 
  SAVE HEAD
  PRINT BUDGET
  SAVE BUDGET

period 720 step 31 
  SAVE HEAD
  PRINT BUDGET
  SAVE BUDGET

period 721 step 31 
  SAVE HEAD
  PRINT BUDGET
  SAVE BUDGET

period 722 step 28 
  SAVE HEAD
  PRINT BUDGET
  SAVE BUDGET

period 723 step 31 
  SAVE HEAD
  PRINT BUDGET
  SAVE BUDGET

period 724 step 30 
  SAVE HEAD
  PRINT BUDGET
  SAVE BUDGET

period 725 step 31 
  SAVE HEAD
  PRINT BUDGET
  SAVE BUDGET

period 726 step 30 
  SAVE HEAD
  PRINT BUDGET
  SAVE BUDGET

period 727 step 31 
  SAVE HEAD
  PRINT BUDGET
  SAVE BUDGET

period 728 step 31 
  SAVE HEAD
  PRINT BUDGET
  SAVE BUDGET

period 729 step 30 
  SAVE HEAD
  PRINT BUDGET
  SAVE BUDGET

period 730 step 31 
  SAVE HEAD
  PRINT BUDGET
  SAVE BUDGET

period 731 step 30 
  SAVE HEAD
  PRINT BUDGET
  SAVE BUDGET

period 732 step 31 
  SAVE HEAD
  PRINT BUDGET
  SAVE BUDGET

period 733 step 31 
  SAVE HEAD
  PRINT BUDGET
  SAVE BUDGET

period 734 step 29 
  SAVE HEAD
  PRINT BUDGET
  SAVE BUDGET

period 735 step 31 
  SAVE HEAD
  PRINT BUDGET
  SAVE BUDGET

period 736 step 30 
  SAVE HEAD
  PRINT BUDGET
  SAVE BUDGET

period 737 step 31 
  SAVE HEAD
  PRINT BUDGET
  SAVE BUDGET

period 738 step 30 
  SAVE HEAD
  PRINT BUDGET
  SAVE BUDGET

period 739 step 31 
  SAVE HEAD
  PRINT BUDGET
  SAVE BUDGET

period 740 step 31 
  SAVE HEAD
  PRINT BUDGET
  SAVE BUDGET

period 741 step 30 
  SAVE HEAD
  PRINT BUDGET
  SAVE BUDGET

period 742 step 31 
  SAVE HEAD
  PRINT BUDGET
  SAVE BUDGET

period 743 step 30 
  SAVE HEAD
  PRINT BUDGET
  SAVE BUDGET

period 744 step 31 
  SAVE HEAD
  PRINT BUDGET
  SAVE BUDGET

period 745 step 31 
  SAVE HEAD
  PRINT BUDGET
  SAVE BUDGET

period 746 step 28 
  SAVE HEAD
  PRINT BUDGET
  SAVE BUDGET

period 747 step 31 
  SAVE HEAD
  PRINT BUDGET
  SAVE BUDGET

period 748 step 30 
  SAVE HEAD
  PRINT BUDGET
  SAVE BUDGET

period 749 step 31 
  SAVE HEAD
  PRINT BUDGET
  SAVE BUDGET

period 750 step 30 
  SAVE HEAD
  PRINT BUDGET
  SAVE BUDGET

period 751 step 31 
  SAVE HEAD
  PRINT BUDGET
  SAVE BUDGET

period 752 step 31 
  SAVE HEAD
  PRINT BUDGET
  SAVE BUDGET

period 753 step 30 
  SAVE HEAD
  PRINT BUDGET
  SAVE BUDGET

period 754 step 31 
  SAVE HEAD
  PRINT BUDGET
  SAVE BUDGET

period 755 step 30 
  SAVE HEAD
  PRINT BUDGET
  SAVE BUDGET

period 756 step 31 
  SAVE HEAD
  PRINT BUDGET
  SAVE BUDGET

period 757 step 31 
  SAVE HEAD
  PRINT BUDGET
  SAVE BUDGET

period 758 step 28 
  SAVE HEAD
  PRINT BUDGET
  SAVE BUDGET

period 759 step 31 
  SAVE HEAD
  PRINT BUDGET
  SAVE BUDGET

period 760 step 30 
  SAVE HEAD
  PRINT BUDGET
  SAVE BUDGET

period 761 step 31 
  SAVE HEAD
  PRINT BUDGET
  SAVE BUDGET

period 762 step 30 
  SAVE HEAD
  PRINT BUDGET
  SAVE BUDGET

period 763 step 31 
  SAVE HEAD
  PRINT BUDGET
  SAVE BUDGET

period 764 step 31 
  SAVE HEAD
  PRINT BUDGET
  SAVE BUDGET

period 765 step 30 
  SAVE HEAD
  PRINT BUDGET
  SAVE BUDGET

period 766 step 31 
  SAVE HEAD
  PRINT BUDGET
  SAVE BUDGET

period 767 step 30 
  SAVE HEAD
  PRINT BUDGET
  SAVE BUDGET

period 768 step 31 
  SAVE HEAD
  PRINT BUDGET
  SAVE BUDGET

period 769 step 31 
  SAVE HEAD
  PRINT BUDGET
  SAVE BUDGET

period 770 step 28 
  SAVE HEAD
  PRINT BUDGET
  SAVE BUDGET

period 771 step 31 
  SAVE HEAD
  PRINT BUDGET
  SAVE BUDGET

period 772 step 30 
  SAVE HEAD
  PRINT BUDGET
  SAVE BUDGET

period 773 step 31 
  SAVE HEAD
  PRINT BUDGET
  SAVE BUDGET

period 774 step 30 
  SAVE HEAD
  PRINT BUDGET
  SAVE BUDGET

period 775 step 31 
  SAVE HEAD
  PRINT BUDGET
  SAVE BUDGET

period 776 step 31 
  SAVE HEAD
  PRINT BUDGET
  SAVE BUDGET

period 777 step 30 
  SAVE HEAD
  PRINT BUDGET
  SAVE BUDGET

period 778 step 31 
  SAVE HEAD
  PRINT BUDGET
  SAVE BUDGET

period 779 step 30 
  SAVE HEAD
  PRINT BUDGET
  SAVE BUDGET

period 780 step 31 
  SAVE HEAD
  PRINT BUDGET
  SAVE BUDGET

period 781 step 31 
  SAVE HEAD
  PRINT BUDGET
  SAVE BUDGET

period 782 step 29 
  SAVE HEAD
  PRINT BUDGET
  SAVE BUDGET

period 783 step 31 
  SAVE HEAD
  PRINT BUDGET
  SAVE BUDGET

period 784 step 30 
  SAVE HEAD
  PRINT BUDGET
  SAVE BUDGET

period 785 step 31 
  SAVE HEAD
  PRINT BUDGET
  SAVE BUDGET

period 786 step 30 
  SAVE HEAD
  PRINT BUDGET
  SAVE BUDGET

period 787 step 31 
  SAVE HEAD
  PRINT BUDGET
  SAVE BUDGET

period 788 step 31 
  SAVE HEAD
  PRINT BUDGET
  SAVE BUDGET

period 789 step 30 
  SAVE HEAD
  PRINT BUDGET
  SAVE BUDGET

period 790 step 31 
  SAVE HEAD
  PRINT BUDGET
  SAVE BUDGET

period 791 step 30 
  SAVE HEAD
  PRINT BUDGET
  SAVE BUDGET

period 792 step 31 
  SAVE HEAD
  PRINT BUDGET
  SAVE BUDGET

period 793 step 31 
  SAVE HEAD
  PRINT BUDGET
  SAVE BUDGET

period 794 step 28 
  SAVE HEAD
  PRINT BUDGET
  SAVE BUDGET

period 795 step 31 
  SAVE HEAD
  PRINT BUDGET
  SAVE BUDGET

period 796 step 30 
  SAVE HEAD
  PRINT BUDGET
  SAVE BUDGET

period 797 step 31 
  SAVE HEAD
  PRINT BUDGET
  SAVE BUDGET

period 798 step 30 
  SAVE HEAD
  PRINT BUDGET
  SAVE BUDGET

period 799 step 31 
  SAVE HEAD
  PRINT BUDGET
  SAVE BUDGET

period 800 step 31 
  SAVE HEAD
  PRINT BUDGET
  SAVE BUDGET

period 801 step 30 
  SAVE HEAD
  PRINT BUDGET
  SAVE BUDGET

period 802 step 31 
  SAVE HEAD
  PRINT BUDGET
  SAVE BUDGET

period 803 step 30 
  SAVE HEAD
  PRINT BUDGET
  SAVE BUDGET

period 804 step 31 
  SAVE HEAD
  PRINT BUDGET
  SAVE BUDGET

period 805 step 31 
  SAVE HEAD
  PRINT BUDGET
  SAVE BUDGET

period 806 step 28 
  SAVE HEAD
  PRINT BUDGET
  SAVE BUDGET

period 807 step 31 
  SAVE HEAD
  PRINT BUDGET
  SAVE BUDGET

period 808 step 30 
  SAVE HEAD
  PRINT BUDGET
  SAVE BUDGET

period 809 step 31 
  SAVE HEAD
  PRINT BUDGET
  SAVE BUDGET

period 810 step 30 
  SAVE HEAD
  PRINT BUDGET
  SAVE BUDGET

period 811 step 31 
  SAVE HEAD
  PRINT BUDGET
  SAVE BUDGET

period 812 step 31 
  SAVE HEAD
  PRINT BUDGET
  SAVE BUDGET

period 813 step 30 
  SAVE HEAD
  PRINT BUDGET
  SAVE BUDGET

period 814 step 31 
  SAVE HEAD
  PRINT BUDGET
  SAVE BUDGET

period 815 step 30 
  SAVE HEAD
  PRINT BUDGET
  SAVE BUDGET

period 816 step 31 
  SAVE HEAD
  PRINT BUDGET
  SAVE BUDGET

