# HFB6 package for  MODFLOW-NWT, generated by Flopy.
         0         0      3511
         1        68       187        67       187     7.56e-05
         2        68       187        67       187     7.56e-05
         3        68       187        67       187     7.56e-05
         4        68       187        67       187     7.56e-05
         1        68       188        68       187     7.56e-05
         2        68       188        68       187     7.56e-05
         3        68       188        68       187     7.56e-05
         4        68       188        68       187     7.56e-05
         1        69       188        68       188     7.56e-05
         2        69       188        68       188     7.56e-05
         3        69       188        68       188     7.56e-05
         4        69       188        68       188     7.56e-05
         1        69       189        69       188     7.56e-05
         2        69       189        69       188     7.56e-05
         3        69       189        69       188     7.56e-05
         4        69       189        69       188     7.56e-05
         1        70       189        69       189     7.56e-05
         2        70       189        69       189     7.56e-05
         3        70       189        69       189     7.56e-05
         4        70       189        69       189     7.56e-05
         1        70       190        69       190     7.56e-05
         2        70       190        69       190     7.56e-05
         3        70       190        69       190     7.56e-05
         4        70       190        69       190     7.56e-05
         1        70       191        70       190     7.56e-05
         2        70       191        70       190     7.56e-05
         3        70       191        70       190     7.56e-05
         4        70       191        70       190     7.56e-05
         1        71       191        70       191     7.56e-05
         2        71       191        70       191     7.56e-05
         3        71       191        70       191     7.56e-05
         4        71       191        70       191     7.56e-05
         1        71       192        70       192     7.56e-05
         2        71       192        70       192     7.56e-05
         3        71       192        70       192     7.56e-05
         4        71       192        70       192     7.56e-05
         1        71       193        71       192     7.56e-05
         2        71       193        71       192     7.56e-05
         3        71       193        71       192     7.56e-05
         4        71       193        71       192     7.56e-05
         1        72       193        71       193     7.56e-05
         2        72       193        71       193     7.56e-05
         3        72       193        71       193     7.56e-05
         4        72       193        71       193     7.56e-05
         1        72       194        72       193     7.56e-05
         2        72       194        72       193     7.56e-05
         3        72       194        72       193     7.56e-05
         4        72       194        72       193     7.56e-05
         1        73       194        72       194     7.56e-05
         2        73       194        72       194     7.56e-05
         3        73       194        72       194     7.56e-05
         4        73       194        72       194     7.56e-05
         1        73       195        73       194     7.56e-05
         2        73       195        73       194     7.56e-05
         3        73       195        73       194     7.56e-05
         4        73       195        73       194     7.56e-05
         1        74       195        73       195     7.56e-05
         2        74       195        73       195     7.56e-05
         3        74       195        73       195     7.56e-05
         4        74       195        73       195     7.56e-05
         1        74       196        74       195     7.56e-05
         2        74       196        74       195     7.56e-05
         3        74       196        74       195     7.56e-05
         4        74       196        74       195     7.56e-05
         1        75       196        74       196     7.56e-05
         2        75       196        74       196     7.56e-05
         3        75       196        74       196     7.56e-05
         4        75       196        74       196     7.56e-05
         1        75       197        75       196     7.56e-05
         2        75       197        75       196     7.56e-05
         3        75       197        75       196     7.56e-05
         4        75       197        75       196     7.56e-05
         1        76       197        76       196     7.56e-05
         2        76       197        76       196     7.56e-05
         3        76       197        76       196     7.56e-05
         4        76       197        76       196     7.56e-05
         1        77       197        76       197     7.56e-05
         2        77       197        76       197     7.56e-05
         3        77       197        76       197     7.56e-05
         4        77       197        76       197     7.56e-05
         1        77       198        77       197     7.56e-05
         2        77       198        77       197     7.56e-05
         3        77       198        77       197     7.56e-05
         4        77       198        77       197     7.56e-05
         1        78       198        77       198     7.56e-05
         2        78       198        77       198     7.56e-05
         3        78       198        77       198     7.56e-05
         4        78       198        77       198     7.56e-05
         1        78       199        78       198     7.56e-05
         2        78       199        78       198     7.56e-05
         3        78       199        78       198     7.56e-05
         4        78       199        78       198     7.56e-05
         1        79       199        78       199     7.56e-05
         2        79       199        78       199     7.56e-05
         3        79       199        78       199     7.56e-05
         4        79       199        78       199     7.56e-05
         1        79       200        79       199     7.56e-05
         2        79       200        79       199     7.56e-05
         3        79       200        79       199     7.56e-05
         4        79       200        79       199     7.56e-05
         1        80       200        80       199     7.56e-05
         2        80       200        80       199     7.56e-05
         3        80       200        80       199     7.56e-05
         4        80       200        80       199     7.56e-05
         1        81       200        80       200     7.56e-05
         2        81       200        80       200     7.56e-05
         3        81       200        80       200     7.56e-05
         4        81       200        80       200     7.56e-05
         1        81       201        81       200     7.56e-05
         2        81       201        81       200     7.56e-05
         3        81       201        81       200     7.56e-05
         4        81       201        81       200     7.56e-05
         1        82       201        81       201     7.56e-05
         2        82       201        81       201     7.56e-05
         3        82       201        81       201     7.56e-05
         4        82       201        81       201     7.56e-05
         1        82       202        81       202     7.56e-05
         2        82       202        81       202     7.56e-05
         3        82       202        81       202     7.56e-05
         4        82       202        81       202     7.56e-05
         1        82       203        82       202     7.56e-05
         2        82       203        82       202     7.56e-05
         3        82       203        82       202     7.56e-05
         4        82       203        82       202     7.56e-05
         1        83       203        82       203     7.56e-05
         2        83       203        82       203     7.56e-05
         3        83       203        82       203     7.56e-05
         4        83       203        82       203     7.56e-05
         1        83       204        82       204     7.56e-05
         2        83       204        82       204     7.56e-05
         3        83       204        82       204     7.56e-05
         4        83       204        82       204     7.56e-05
         1        83       205        82       205     7.56e-05
         2        83       205        82       205     7.56e-05
         3        83       205        82       205     7.56e-05
         4        83       205        82       205     7.56e-05
         1        83       206        83       205     7.56e-05
         2        83       206        83       205     7.56e-05
         3        83       206        83       205     7.56e-05
         4        83       206        83       205     7.56e-05
         1        84       206        83       206     7.56e-05
         2        84       206        83       206     7.56e-05
         3        84       206        83       206     7.56e-05
         4        84       206        83       206     7.56e-05
         1        84       207        83       207     7.56e-05
         2        84       207        83       207     7.56e-05
         3        84       207        83       207     7.56e-05
         4        84       207        83       207     7.56e-05
         1        84       208        83       208     7.56e-05
         2        84       208        83       208     7.56e-05
         3        84       208        83       208     7.56e-05
         4        84       208        83       208     7.56e-05
         1        84       209        84       208     7.56e-05
         2        84       209        84       208     7.56e-05
         3        84       209        84       208     7.56e-05
         4        84       209        84       208     7.56e-05
         1        85       209        84       209     7.56e-05
         2        85       209        84       209     7.56e-05
         3        85       209        84       209     7.56e-05
         4        85       209        84       209     7.56e-05
         1        52        96        51        96        10.16
         2        52        96        51        96        10.16
         3        52        96        51        96        10.16
         4        52        96        51        96        10.16
         1        52        97        52        96        10.16
         2        52        97        52        96        10.16
         3        52        97        52        96        10.16
         4        52        97        52        96        10.16
         1        53        97        52        97        10.16
         2        53        97        52        97        10.16
         3        53        97        52        97        10.16
         4        53        97        52        97        10.16
         1        53        98        52        98        10.16
         2        53        98        52        98        10.16
         3        53        98        52        98        10.16
         4        53        98        52        98        10.16
         1        53        99        52        99        10.16
         2        53        99        52        99        10.16
         3        53        99        52        99        10.16
         4        53        99        52        99        10.16
         1        53       100        53        99        10.16
         2        53       100        53        99        10.16
         3        53       100        53        99        10.16
         4        53       100        53        99        10.16
         1        54       100        53       100        10.16
         2        54       100        53       100        10.16
         3        54       100        53       100        10.16
         4        54       100        53       100        10.16
         1        54       101        53       101        10.16
         2        54       101        53       101        10.16
         3        54       101        53       101        10.16
         4        54       101        53       101        10.16
         1        54       102        54       101        10.16
         2        54       102        54       101        10.16
         3        54       102        54       101        10.16
         4        54       102        54       101        10.16
         1        55       102        54       102        10.16
         2        55       102        54       102        10.16
         3        55       102        54       102        10.16
         4        55       102        54       102        10.16
         1        55       103        54       103        10.16
         2        55       103        54       103        10.16
         3        55       103        54       103        10.16
         4        55       103        54       103        10.16
         1        55       104        55       103        10.16
         2        55       104        55       103        10.16
         3        55       104        55       103        10.16
         4        55       104        55       103        10.16
         1        56       104        55       104        10.16
         2        56       104        55       104        10.16
         3        56       104        55       104        10.16
         4        56       104        55       104        10.16
         1        56       105        55       105        10.16
         2        56       105        55       105        10.16
         3        56       105        55       105        10.16
         4        56       105        55       105        10.16
         1        56       106        55       106        10.16
         2        56       106        55       106        10.16
         3        56       106        55       106        10.16
         4        56       106        55       106        10.16
         1        56       107        56       106        10.16
         2        56       107        56       106        10.16
         3        56       107        56       106        10.16
         4        56       107        56       106        10.16
         1        57       107        56       107        10.16
         2        57       107        56       107        10.16
         3        57       107        56       107        10.16
         4        57       107        56       107        10.16
         1        57       108        56       108        10.16
         2        57       108        56       108        10.16
         3        57       108        56       108        10.16
         4        57       108        56       108        10.16
         1        57       109        57       108        10.16
         2        57       109        57       108        10.16
         3        57       109        57       108        10.16
         4        57       109        57       108        10.16
         1        58       109        57       109        10.16
         2        58       109        57       109        10.16
         3        58       109        57       109        10.16
         4        58       109        57       109        10.16
         1        58       110        57       110        10.16
         2        58       110        57       110        10.16
         3        58       110        57       110        10.16
         4        58       110        57       110        10.16
         1        58       111        57       111        10.16
         2        58       111        57       111        10.16
         3        58       111        57       111        10.16
         4        58       111        57       111        10.16
         1        58       112        58       111        10.16
         2        58       112        58       111        10.16
         3        58       112        58       111        10.16
         4        58       112        58       111        10.16
         1        59       112        58       112        10.16
         2        59       112        58       112        10.16
         3        59       112        58       112        10.16
         4        59       112        58       112        10.16
         1        59       113        58       113        10.16
         2        59       113        58       113        10.16
         3        59       113        58       113        10.16
         4        59       113        58       113        10.16
         1        59       114        58       114        10.16
         2        59       114        58       114        10.16
         3        59       114        58       114        10.16
         4        59       114        58       114        10.16
         1        59       115        59       114        10.16
         2        59       115        59       114        10.16
         3        59       115        59       114        10.16
         4        59       115        59       114        10.16
         1        60       115        59       115        10.16
         2        60       115        59       115        10.16
         3        60       115        59       115        10.16
         4        60       115        59       115        10.16
         1        60       116        59       116        10.16
         2        60       116        59       116        10.16
         3        60       116        59       116        10.16
         4        60       116        59       116        10.16
         1        60       117        59       117        10.16
         2        60       117        59       117        10.16
         3        60       117        59       117        10.16
         4        60       117        59       117        10.16
         1        60       118        60       117        10.16
         2        60       118        60       117        10.16
         3        60       118        60       117        10.16
         4        60       118        60       117        10.16
         1        61       118        60       118        10.16
         2        61       118        60       118        10.16
         3        61       118        60       118        10.16
         4        61       118        60       118        10.16
         1        61       119        60       119        10.16
         2        61       119        60       119        10.16
         3        61       119        60       119        10.16
         4        61       119        60       119        10.16
         1        61       120        60       120        10.16
         2        61       120        60       120        10.16
         3        61       120        60       120        10.16
         4        61       120        60       120        10.16
         1        61       121        61       120        10.16
         2        61       121        61       120        10.16
         3        61       121        61       120        10.16
         4        61       121        61       120        10.16
         1        62       121        61       121        10.16
         2        62       121        61       121        10.16
         3        62       121        61       121        10.16
         4        62       121        61       121        10.16
         1        62       122        61       122        10.16
         2        62       122        61       122        10.16
         3        62       122        61       122        10.16
         4        62       122        61       122        10.16
         1        62       123        61       123        10.16
         2        62       123        61       123        10.16
         3        62       123        61       123        10.16
         4        62       123        61       123        10.16
         1        62       124        62       123        10.16
         2        62       124        62       123        10.16
         3        62       124        62       123        10.16
         4        62       124        62       123        10.16
         1        63       124        62       124        10.16
         2        63       124        62       124        10.16
         3        63       124        62       124        10.16
         4        63       124        62       124        10.16
         1        63       125        62       125        10.16
         2        63       125        62       125        10.16
         3        63       125        62       125        10.16
         4        63       125        62       125        10.16
         1        63       126        62       126        10.16
         2        63       126        62       126        10.16
         3        63       126        62       126        10.16
         4        63       126        62       126        10.16
         1        63       127        63       126        10.16
         2        63       127        63       126        10.16
         3        63       127        63       126        10.16
         4        63       127        63       126        10.16
         1        64       127        63       127        10.16
         2        64       127        63       127        10.16
         3        64       127        63       127        10.16
         4        64       127        63       127        10.16
         1        64       128        63       128        10.16
         2        64       128        63       128        10.16
         3        64       128        63       128        10.16
         4        64       128        63       128        10.16
         1        64       129        63       129        10.16
         2        64       129        63       129        10.16
         3        64       129        63       129        10.16
         4        64       129        63       129        10.16
         1        64       130        64       129        10.16
         2        64       130        64       129        10.16
         3        64       130        64       129        10.16
         4        64       130        64       129        10.16
         1        65       130        64       130        10.16
         2        65       130        64       130        10.16
         3        65       130        64       130        10.16
         4        65       130        64       130        10.16
         1        65       131        64       131        10.16
         2        65       131        64       131        10.16
         3        65       131        64       131        10.16
         4        65       131        64       131        10.16
         1        65       132        64       132        10.16
         2        65       132        64       132        10.16
         3        65       132        64       132        10.16
         4        65       132        64       132        10.16
         1        65       133        65       132        10.16
         2        65       133        65       132        10.16
         3        65       133        65       132        10.16
         4        65       133        65       132        10.16
         1        66       133        65       133        10.16
         2        66       133        65       133        10.16
         3        66       133        65       133        10.16
         4        66       133        65       133        10.16
         1        66       134        65       134        10.16
         2        66       134        65       134        10.16
         3        66       134        65       134        10.16
         4        66       134        65       134        10.16
         1        66       135        65       135        10.16
         2        66       135        65       135        10.16
         3        66       135        65       135        10.16
         4        66       135        65       135        10.16
         1        66       136        65       136        10.16
         2        66       136        65       136        10.16
         3        66       136        65       136        10.16
         4        66       136        65       136        10.16
         1        66       137        66       136        10.16
         2        66       137        66       136        10.16
         3        66       137        66       136        10.16
         4        66       137        66       136        10.16
         1        67       137        66       137        10.16
         2        67       137        66       137        10.16
         3        67       137        66       137        10.16
         4        67       137        66       137        10.16
         1        67       138        66       138        10.16
         2        67       138        66       138        10.16
         3        67       138        66       138        10.16
         4        67       138        66       138        10.16
         1        67       139        66       139        10.16
         2        67       139        66       139        10.16
         3        67       139        66       139        10.16
         4        67       139        66       139        10.16
         1        67       140        67       139        10.16
         2        67       140        67       139        10.16
         3        67       140        67       139        10.16
         4        67       140        67       139        10.16
         1        68       140        67       140        10.16
         2        68       140        67       140        10.16
         3        68       140        67       140        10.16
         4        68       140        67       140        10.16
         1        68       141        67       141        10.16
         2        68       141        67       141        10.16
         3        68       141        67       141        10.16
         4        68       141        67       141        10.16
         1        68       142        67       142        10.16
         2        68       142        67       142        10.16
         3        68       142        67       142        10.16
         4        68       142        67       142        10.16
         1        68       143        67       143        10.16
         2        68       143        67       143        10.16
         3        68       143        67       143        10.16
         4        68       143        67       143        10.16
         1        68       144        68       143        10.16
         2        68       144        68       143        10.16
         3        68       144        68       143        10.16
         4        68       144        68       143        10.16
         1        69       144        68       144        10.16
         2        69       144        68       144        10.16
         3        69       144        68       144        10.16
         4        69       144        68       144        10.16
         1        69       145        68       145        10.16
         2        69       145        68       145        10.16
         3        69       145        68       145        10.16
         4        69       145        68       145        10.16
         1        69       146        68       146        10.16
         2        69       146        68       146        10.16
         3        69       146        68       146        10.16
         4        69       146        68       146        10.16
         1        69       147        69       146        10.16
         2        69       147        69       146        10.16
         3        69       147        69       146        10.16
         4        69       147        69       146        10.16
         1        70       147        69       147        10.16
         2        70       147        69       147        10.16
         3        70       147        69       147        10.16
         4        70       147        69       147        10.16
         1        70       148        69       148        10.16
         2        70       148        69       148        10.16
         3        70       148        69       148        10.16
         4        70       148        69       148        10.16
         1        70       149        69       149        10.16
         2        70       149        69       149        10.16
         3        70       149        69       149        10.16
         4        70       149        69       149        10.16
         1        70       150        69       150        10.16
         2        70       150        69       150        10.16
         3        70       150        69       150        10.16
         4        70       150        69       150        10.16
         1        70       151        70       150        10.16
         2        70       151        70       150        10.16
         3        70       151        70       150        10.16
         4        70       151        70       150        10.16
         1        71       151        70       151        10.16
         2        71       151        70       151        10.16
         3        71       151        70       151        10.16
         4        71       151        70       151        10.16
         1        71       152        70       152        10.16
         2        71       152        70       152        10.16
         3        71       152        70       152        10.16
         4        71       152        70       152        10.16
         1        71       153        70       153        10.16
         2        71       153        70       153        10.16
         3        71       153        70       153        10.16