# HOB package for  MODFLOW-NWT, generated by Flopy.
     22360     10140         4        53     -9999
         1
HO_0                    4        125        193        -24                  0.0    -0.1032     0.0392     0.0000   # DATASET 3 - Observation 1
         1                                                                                                         # DATASET 5 - Observation 1
HO_0.1                640                 25.0  2550.9197                                                          # DATASET 6 - Observation 1.1
HO_0.2                646                 23.0  2550.7197                                                          # DATASET 6 - Observation 1.2
HO_0.3                653                 14.0  2550.6199                                                          # DATASET 6 - Observation 1.3
HO_0.4                659                  5.0  2549.6199                                                          # DATASET 6 - Observation 1.4
HO_0.5                664                 22.0  2549.3198                                                          # DATASET 6 - Observation 1.5
HO_0.6                671                  3.0  2548.7197                                                          # DATASET 6 - Observation 1.6
HO_0.7                676                 28.0  2548.8198                                                          # DATASET 6 - Observation 1.7
HO_0.8                694                 25.0  2546.7197                                                          # DATASET 6 - Observation 1.8
HO_0.9                700                 25.0  2547.5198                                                          # DATASET 6 - Observation 1.9
HO_0.10               707                 28.0  2547.3198                                                          # DATASET 6 - Observation 1.10
HO_0.11               719                  6.0  2546.3198                                                          # DATASET 6 - Observation 1.11
HO_0.12               725                  1.0  2546.4197                                                          # DATASET 6 - Observation 1.12
HO_0.13               731                  5.0  2545.8198                                                          # DATASET 6 - Observation 1.13
HO_0.14               736                 29.0  2546.6199                                                          # DATASET 6 - Observation 1.14
HO_0.15               743                  3.0  2546.5198                                                          # DATASET 6 - Observation 1.15
HO_0.16               748                 22.0  2546.9197                                                          # DATASET 6 - Observation 1.16
HO_0.17               755                  3.0  2547.7197                                                          # DATASET 6 - Observation 1.17
HO_0.18               761                  3.0  2549.3198                                                          # DATASET 6 - Observation 1.18
HO_0.19               766                 28.0  2549.6199                                                          # DATASET 6 - Observation 1.19
HO_0.20               773                 16.0  2551.7197                                                          # DATASET 6 - Observation 1.20
HO_0.21               779                 16.0  2552.7197                                                          # DATASET 6 - Observation 1.21
HO_0.22               785                 22.0  2554.3198                                                          # DATASET 6 - Observation 1.22
HO_0.23               797                  7.0  2555.8198                                                          # DATASET 6 - Observation 1.23
HO_0.24               804                  3.0  2556.7097                                                          # DATASET 6 - Observation 1.24
HO_1                    1        124        185        623                 11.0    -0.1341    -0.2105  2470.3359   # DATASET 3 - Observation 2
HO_2                    3        116        181        -25                  0.0     0.2876    -0.0089     0.0000   # DATASET 3 - Observation 3
         1                                                                                                         # DATASET 5 - Observation 3
HO_2.1                618                  9.0  2324.7153                                                          # DATASET 6 - Observation 3.1
HO_2.2                623                 10.0  2323.5151                                                          # DATASET 6 - Observation 3.2
HO_2.3                628                 26.0  2334.0151                                                          # DATASET 6 - Observation 3.3
HO_2.4                634                 27.0  2319.4153                                                          # DATASET 6 - Observation 3.4
HO_2.5                640                 25.0  2333.8152                                                          # DATASET 6 - Observation 3.5
HO_2.6                646                 23.0  2317.9153                                                          # DATASET 6 - Observation 3.6
HO_2.7                653                 14.0  2333.0151                                                          # DATASET 6 - Observation 3.7
HO_2.8                659                  5.0  2324.1152                                                          # DATASET 6 - Observation 3.8
HO_2.9                671                  3.0  2318.2153                                                          # DATASET 6 - Observation 3.9
HO_2.10               676                 28.0  2330.7153                                                          # DATASET 6 - Observation 3.10
HO_2.11               683                 17.0  2340.3152                                                          # DATASET 6 - Observation 3.11
HO_2.12               688                 20.0  2346.2153                                                          # DATASET 6 - Observation 3.12
HO_2.13               694                 25.0  2349.8152                                                          # DATASET 6 - Observation 3.13
HO_2.14               700                 26.0  2354.5151                                                          # DATASET 6 - Observation 3.14
HO_2.15               707                 28.0  2315.8152                                                          # DATASET 6 - Observation 3.15
HO_2.16               713                 16.0  2349.9153                                                          # DATASET 6 - Observation 3.16
HO_2.17               736                 29.0  2330.4153                                                          # DATASET 6 - Observation 3.17
HO_2.18               743                  3.0  2355.7153                                                          # DATASET 6 - Observation 3.18
HO_2.19               748                 22.0  2367.2153                                                          # DATASET 6 - Observation 3.19
HO_2.20               755                  3.0  2376.1152                                                          # DATASET 6 - Observation 3.20
HO_2.21               761                  3.0  2389.6152                                                          # DATASET 6 - Observation 3.21
HO_2.22               766                 27.0  2394.5151                                                          # DATASET 6 - Observation 3.22
HO_2.23               773                 15.0  2405.0151                                                          # DATASET 6 - Observation 3.23
HO_2.24               779                 14.0  2407.2153                                                          # DATASET 6 - Observation 3.24
HO_2.25               785                 22.0  2409.7651                                                          # DATASET 6 - Observation 3.25
HO_3                    1        116        181        -19                  0.0     0.2403     0.0904     0.0000   # DATASET 3 - Observation 4
         1                                                                                                         # DATASET 5 - Observation 4
HO_3.1                683                 17.0  2439.1152                                                          # DATASET 6 - Observation 4.1
HO_3.2                688                 20.0  2451.6152                                                          # DATASET 6 - Observation 4.2
HO_3.3                694                 28.0  2423.5151                                                          # DATASET 6 - Observation 4.3
HO_3.4                700                 26.0  2444.9153                                                          # DATASET 6 - Observation 4.4
HO_3.5                707                 28.0  2417.6152                                                          # DATASET 6 - Observation 4.5
HO_3.6                717                 16.0  2442.1152                                                          # DATASET 6 - Observation 4.6
HO_3.7                736                 29.0  2399.6152                                                          # DATASET 6 - Observation 4.7
HO_3.8                743                  3.0  2409.0151                                                          # DATASET 6 - Observation 4.8
HO_3.9                748                 22.0  2415.2153                                                          # DATASET 6 - Observation 4.9
HO_3.10               755                  3.0  2422.0151                                                          # DATASET 6 - Observation 4.10
HO_3.11               761                  3.0  2429.4153                                                          # DATASET 6 - Observation 4.11
HO_3.12               766                 27.0  2434.2153                                                          # DATASET 6 - Observation 4.12
HO_3.13               773                 16.0  2438.4153                                                          # DATASET 6 - Observation 4.13
HO_3.14               779                 14.0  2438.8152                                                          # DATASET 6 - Observation 4.14
HO_3.15               785                 22.0  2440.1152                                                          # DATASET 6 - Observation 4.15
HO_3.16               792                  4.0  2440.1152                                                          # DATASET 6 - Observation 4.16
HO_3.17               804                  3.0  2421.5852                                                          # DATASET 6 - Observation 4.17
HO_3.18               809                  6.0  2421.4851                                                          # DATASET 6 - Observation 4.18
HO_3.19               815                  3.0  2420.6052                                                          # DATASET 6 - Observation 4.19
HO_4                    1        114        175        -32                  0.0     0.0110    -0.4813     0.0000   # DATASET 3 - Observation 5
         1                                                                                                         # DATASET 5 - Observation 5
HO_4.1                618                  9.0  2346.8083                                                          # DATASET 6 - Observation 5.1
HO_4.2                628                 26.0  2348.3083                                                          # DATASET 6 - Observation 5.2
HO_4.3                634                 27.0  2346.7085                                                          # DATASET 6 - Observation 5.3
HO_4.4                640                 25.0  2347.8083                                                          # DATASET 6 - Observation 5.4
HO_4.5                646                 23.0  2346.5083                                                          # DATASET 6 - Observation 5.5
HO_4.6                653                 14.0  2347.6084                                                          # DATASET 6 - Observation 5.6
HO_4.7                659                  5.0  2345.8083                                                          # DATASET 6 - Observation 5.7
HO_4.8                664                 22.0  2346.3083                                                          # DATASET 6 - Observation 5.8
HO_4.9                671                  3.0  2344.1084                                                          # DATASET 6 - Observation 5.9
HO_4.10               683                 17.0  2344.5083                                                          # DATASET 6 - Observation 5.10
HO_4.11               688                 19.0  2345.7085                                                          # DATASET 6 - Observation 5.11
HO_4.12               694                 25.0  2344.6084                                                          # DATASET 6 - Observation 5.12
HO_4.13               700                 26.0  2346.4084                                                          # DATASET 6 - Observation 5.13
HO_4.14               707                 28.0  2347.2085                                                          # DATASET 6 - Observation 5.14
HO_4.15               713                 16.0  2349.3083                                                          # DATASET 6 - Observation 5.15
HO_4.16               719                  6.0  2351.4084                                                          # DATASET 6 - Observation 5.16
HO_4.17               725                  1.0  2353.4084                                                          # DATASET 6 - Observation 5.17
HO_4.18               731                  5.0  2354.2085                                                          # DATASET 6 - Observation 5.18
HO_4.19               736                 28.0  2355.8083                                                          # DATASET 6 - Observation 5.19
HO_4.20               743                  3.0  2355.7085                                                          # DATASET 6 - Observation 5.20
HO_4.21               748                 22.0  2356.4084                                                          # DATASET 6 - Observation 5.21
HO_4.22               755                  3.0  2355.7085                                                          # DATASET 6 - Observation 5.22
HO_4.23               761                  3.0  2356.4084                                                          # DATASET 6 - Observation 5.23
HO_4.24               766                 27.0  2355.4084                                                          # DATASET 6 - Observation 5.24
HO_4.25               773                 19.0  2356.3083                                                          # DATASET 6 - Observation 5.25
HO_4.26               779                 14.0  2355.4084                                                          # DATASET 6 - Observation 5.26
HO_4.27               785                 22.0  2356.0083                                                          # DATASET 6 - Observation 5.27
HO_4.28               792                  4.0  2354.3083                                                          # DATASET 6 - Observation 5.28
HO_4.29               797                  6.0  2354.2085                                                          # DATASET 6 - Observation 5.29
HO_4.30               804                  3.0  2353.2383                                                          # DATASET 6 - Observation 5.30
HO_4.31               809                  6.0  2352.7085                                                          # DATASET 6 - Observation 5.31
HO_4.32               815                  2.0  2349.7883                                                          # DATASET 6 - Observation 5.32
HO_5                   -2        114        174        -66                  0.0     0.0110     0.1764     0.0000   # DATASET 3 - Observation 6
    3    0.0955    4    0.9045  # DATASET 4 - Observation 6
         1                                                                                                         # DATASET 5 - Observation 6
HO_5.1                 76                 13.0  2430.3650                                                          # DATASET 6 - Observation 6.1
HO_5.2                 88                  6.0  2430.6648                                                          # DATASET 6 - Observation 6.2
HO_5.3                 95                 22.0  2421.0449                                                          # DATASET 6 - Observation 6.3
HO_5.4                106                 25.0  2405.3650                                                          # DATASET 6 - Observation 6.4
HO_5.5                118                 25.0  2422.8650                                                          # DATASET 6 - Observation 6.5
HO_5.6                124                 28.0  2425.2649                                                          # DATASET 6 - Observation 6.6
HO_5.7                166                 21.0  2415.6648                                                          # DATASET 6 - Observation 6.7
HO_5.8                179                 13.0  2419.7148                                                          # DATASET 6 - Observation 6.8
HO_5.9                183                 22.0  2425.7148                                                          # DATASET 6 - Observation 6.9
HO_5.10               190                 25.0  2413.7349                                                          # DATASET 6 - Observation 6.10
HO_5.11               196                 14.0  2413.0149                                                          # DATASET 6 - Observation 6.11
HO_5.12               203                 14.0  2419.0950                                                          # DATASET 6 - Observation 6.12
HO_5.13               207                 26.0  2407.8149                                                          # DATASET 6 - Observation 6.13
HO_5.14               214                  7.0  2417.1448                                                          # DATASET 6 - Observation 6.14
HO_5.15               220                 22.0  2418.7148                                                          # DATASET 6 - Observation 6.15
HO_5.16               227                 18.0  2416.6948                                                          # DATASET 6 - Observation 6.16
HO_5.17               232                 21.0  2417.4648                                                          # DATASET 6 - Observation 6.17
HO_5.18               239                 13.0  2415.7649                                                          # DATASET 6 - Observation 6.18
HO_5.19               244                  5.0  2417.1648                                                          # DATASET 6 - Observation 6.19
HO_5.20               263                 20.0  2413.9648                                                          # DATASET 6 - Observation 6.20
HO_5.21               268                 13.0  2418.5649                                                          # DATASET 6 - Observation 6.21
HO_5.22               280                 13.0  2413.6648                                                          # DATASET 6 - Observation 6.22
HO_5.23               286                 14.0  2409.0649                                                          # DATASET 6 - Observation 6.23
HO_5.24               292                  0.0  2413.1648                                                          # DATASET 6 - Observation 6.24
HO_5.25               298                 14.0  2413.3650                                                          # DATASET 6 - Observation 6.25
HO_5.26               304                 23.0  2414.7649                                                          # DATASET 6 - Observation 6.26
HO_5.27               323                  5.0  2414.7649                                                          # DATASET 6 - Observation 6.27
HO_5.28               340                 15.0  2420.8650                                                          # DATASET 6 - Observation 6.28
HO_5.29               352                 21.0  2423.7649                                                          # DATASET 6 - Observation 6.29
HO_5.30               364                 27.0  2421.3650                                                          # DATASET 6 - Observation 6.30
HO_5.31               369                 22.0  2427.8650                                                          # DATASET 6 - Observation 6.31
HO_5.32               388                 22.0  2437.4648                                                          # DATASET 6 - Observation 6.32
HO_5.33               394                 24.0  2431.6648                                                          # DATASET 6 - Observation 6.33
HO_5.34               400                 21.0  2439.8650                                                          # DATASET 6 - Observation 6.34
HO_5.35               406                 20.0  2429.4648                                                          # DATASET 6 - Observation 6.35
HO_5.36               412                 13.0  2441.3650                                                          # DATASET 6 - Observation 6.36
HO_5.37               472                  7.0  2416.2749                                                          # DATASET 6 - Observation 6.37
HO_5.38               474                 17.0  2414.4949                                                          # DATASET 6 - Observation 6.38
HO_5.39               479                 16.0  2415.0149                                                          # DATASET 6 - Observation 6.39
HO_5.40               488                 12.0  2414.3149                                                          # DATASET 6 - Observation 6.40
HO_5.41               498                 28.0  2412.8650                                                          # DATASET 6 - Observation 6.41
HO_5.42               522                 24.0  2408.2349                                                          # DATASET 6 - Observation 6.42
HO_5.43               527                 26.0  2408.3650                                                          # DATASET 6 - Observation 6.43
HO_5.44               539                 25.0  2405.8948                                                          # DATASET 6 - Observation 6.44
HO_5.45               556                 12.0  2403.0349                                                          # DATASET 6 - Observation 6.45
HO_5.46               562                 17.0  2403.8250                                                          # DATASET 6 - Observation 6.46
HO_5.47               568                 19.0  2406.0649                                                          # DATASET 6 - Observation 6.47
HO_5.48               586                 25.0  2407.0649                                                          # DATASET 6 - Observation 6.48
HO_5.49               592                 23.0  2407.9749                                                          # DATASET 6 - Observation 6.49
HO_5.50               598                  9.0  2407.9949                                                          # DATASET 6 - Observation 6.50
HO_5.51               604                 17.0  2409.3350                                                          # DATASET 6 - Observation 6.51
HO_5.52               610                  2.0  2407.8250                                                          # DATASET 6 - Observation 6.52
HO_5.53               616                 16.0  2409.6350                                                          # DATASET 6 - Observation 6.53
HO_5.54               622                 20.0  2411.6150                                                          # DATASET 6 - Observation 6.54
HO_5.55               628                 11.0  2412.1748                                                          # DATASET 6 - Observation 6.55
HO_5.56               640                 12.0  2413.0249                                                          # DATASET 6 - Observation 6.56
HO_5.57               646                 24.0  2411.0249                                                          # DATASET 6 - Observation 6.57
HO_5.58               658                 24.0  2412.0850                                                          # DATASET 6 - Observation 6.58
HO_5.59               664                 10.0  2412.7148                                                          # DATASET 6 - Observation 6.59
HO_5.60               676                 23.0  2408.8250                                                          # DATASET 6 - Observation 6.60
HO_5.61               688                 21.0  2409.3948                                                          # DATASET 6 - Observation 6.61
HO_5.62               694                 17.0  2410.1648                                                          # DATASET 6 - Observation 6.62
HO_5.63               700                 18.0  2413.1448                                                          # DATASET 6 - Observation 6.63
HO_5.64               706                 24.0  2410.3350                                                          # DATASET 6 - Observation 6.64
HO_5.65               724                 19.0  2413.7649                                                          # DATASET 6 - Observation 6.65
HO_5.66               731                  1.0  2399.9949                                                          # DATASET 6 - Observation 6.66
HO_6                    1        110        159        -48                  0.0     0.3722     0.3077     0.0000   # DATASET 3 - Observation 7
         1                                                                                                         # DATASET 5 - Observation 7
HO_6.1                 10                  6.0  2294.1011                                                          # DATASET 6 - Observation 7.1
HO_6.2                208                  6.0  2291.6011                                                          # DATASET 6 - Observation 7.2
HO_6.3                214                  8.0  2291.3010                                                          # DATASET 6 - Observation 7.3
HO_6.4                215                 22.0  2291.4011                                                          # DATASET 6 - Observation 7.4
HO_6.5                219                 22.0  2291.6011                                                          # DATASET 6 - Observation 7.5
HO_6.6                220                 22.0  2291.3010                                                          # DATASET 6 - Observation 7.6
HO_6.7                227                 17.0  2291.1011                                                          # DATASET 6 - Observation 7.7
HO_6.8                232                 20.0  2291.0010                                                          # DATASET 6 - Observation 7.8
HO_6.9                251                 15.0  2290.6011                                                          # DATASET 6 - Observation 7.9
HO_6.10               256                  8.0  2290.5010                                                          # DATASET 6 - Observation 7.10
HO_6.11               263                 18.0  2288.3010                                                          # DATASET 6 - Observation 7.11
HO_6.12               268                 13.0  2290.6011                                                          # DATASET 6 - Observation 7.12
HO_6.13               275                 11.0  2290.9011                                                          # DATASET 6 - Observation 7.13
HO_6.14               280                 12.0  2290.9011                                                          # DATASET 6 - Observation 7.14
HO_6.15               286                 14.0  2291.0010                                                          # DATASET 6 - Observation 7.15
HO_6.16               292                 12.0  2290.9011                                                          # DATASET 6 - Observation 7.16
HO_6.17               304                 25.0  2290.9011                                                          # DATASET 6 - Observation 7.17
HO_6.18               310                 25.0  2290.9011                                                          # DATASET 6 - Observation 7.18
HO_6.19               316                 18.0  2291.1011                                                          # DATASET 6 - Observation 7.19
HO_6.20               323                  6.0  2290.9011                                                          # DATASET 6 - Observation 7.20
HO_6.21               328                 23.0  2291.1011                                                          # DATASET 6 - Observation 7.21
HO_6.22               334                 24.0  2291.1011                                                          # DATASET 6 - Observation 7.22
HO_6.23               340                 15.0  2291.3010                                                          # DATASET 6 - Observation 7.23
HO_6.24               346                 29.0  2291.2009                                                          # DATASET 6 - Observation 7.24
HO_6.25               352                 19.0  2291.8010                                                          # DATASET 6 - Observation 7.25