# MODFLOW OC file extended
HEAD PRINT FORMAT   0
DRAWDOWN PRINT FORMAT   0
HEAD SAVE UNIT  51
COMPACT BUDGET AUX
period 408 step 31 
  SAVE HEAD
  PRINT BUDGET
  SAVE BUDGET

period 409 step 31 
  SAVE HEAD
  PRINT BUDGET
  SAVE BUDGET

period 410 step 28 
  SAVE HEAD
  PRINT BUDGET
  SAVE BUDGET

period 411 step 31 
  SAVE HEAD
  PRINT BUDGET
  SAVE BUDGET

period 412 step 30 
  SAVE HEAD
  PRINT BUDGET
  SAVE BUDGET

period 413 step 31 
  SAVE HEAD
  PRINT BUDGET
  SAVE BUDGET

period 414 step 30 
  SAVE HEAD
  PRINT BUDGET
  SAVE BUDGET

period 415 step 31 
  SAVE HEAD
  PRINT BUDGET
  SAVE BUDGET

period 416 step 31 
  SAVE HEAD
  PRINT BUDGET
  SAVE BUDGET

period 417 step 30 
  SAVE HEAD
  PRINT BUDGET
  SAVE BUDGET

period 418 step 31 
  SAVE HEAD
  PRINT BUDGET
  SAVE BUDGET

period 419 step 30 
  SAVE HEAD
  PRINT BUDGET
  SAVE BUDGET

period 420 step 31 
  SAVE HEAD
  PRINT BUDGET
  SAVE BUDGET

period 421 step 31 
  SAVE HEAD
  PRINT BUDGET
  SAVE BUDGET

period 422 step 28 
  SAVE HEAD
  PRINT BUDGET
  SAVE BUDGET

period 423 step 31 
  SAVE HEAD
  PRINT BUDGET
  SAVE BUDGET

period 424 step 30 
  SAVE HEAD
  PRINT BUDGET
  SAVE BUDGET

period 425 step 31 
  SAVE HEAD
  PRINT BUDGET
  SAVE BUDGET

period 426 step 30 
  SAVE HEAD
  PRINT BUDGET
  SAVE BUDGET

period 427 step 31 
  SAVE HEAD
  PRINT BUDGET
  SAVE BUDGET

period 428 step 31 
  SAVE HEAD
  PRINT BUDGET
  SAVE BUDGET

period 429 step 30 
  SAVE HEAD
  PRINT BUDGET
  SAVE BUDGET

period 430 step 31 
  SAVE HEAD
  PRINT BUDGET
  SAVE BUDGET

period 431 step 30 
  SAVE HEAD
  PRINT BUDGET
  SAVE BUDGET

period 432 step 31 
  SAVE HEAD
  PRINT BUDGET
  SAVE BUDGET

period 433 step 31 
  SAVE HEAD
  PRINT BUDGET
  SAVE BUDGET

period 434 step 28 
  SAVE HEAD
  PRINT BUDGET
  SAVE BUDGET

period 435 step 31 
  SAVE HEAD
  PRINT BUDGET
  SAVE BUDGET

period 436 step 30 
  SAVE HEAD
  PRINT BUDGET
  SAVE BUDGET

period 437 step 31 
  SAVE HEAD
  PRINT BUDGET
  SAVE BUDGET

period 438 step 30 
  SAVE HEAD
  PRINT BUDGET
  SAVE BUDGET

period 439 step 31 
  SAVE HEAD
  PRINT BUDGET
  SAVE BUDGET

period 440 step 31 
  SAVE HEAD
  PRINT BUDGET
  SAVE BUDGET

period 441 step 30 
  SAVE HEAD
  PRINT BUDGET
  SAVE BUDGET

period 442 step 31 
  SAVE HEAD
  PRINT BUDGET
  SAVE BUDGET

period 443 step 30 
  SAVE HEAD
  PRINT BUDGET
  SAVE BUDGET

period 444 step 31 
  SAVE HEAD
  PRINT BUDGET
  SAVE BUDGET

period 445 step 31 
  SAVE HEAD
  PRINT BUDGET
  SAVE BUDGET

period 446 step 29 
  SAVE HEAD
  PRINT BUDGET
  SAVE BUDGET

period 447 step 31 
  SAVE HEAD
  PRINT BUDGET
  SAVE BUDGET

period 448 step 30 
  SAVE HEAD
  PRINT BUDGET
  SAVE BUDGET

period 449 step 31 
  SAVE HEAD
  PRINT BUDGET
  SAVE BUDGET

period 450 step 30 
  SAVE HEAD
  PRINT BUDGET
  SAVE BUDGET

period 451 step 31 
  SAVE HEAD
  PRINT BUDGET
  SAVE BUDGET

period 452 step 31 
  SAVE HEAD
  PRINT BUDGET
  SAVE BUDGET

period 453 step 30 
  SAVE HEAD
  PRINT BUDGET
  SAVE BUDGET

period 454 step 31 
  SAVE HEAD
  PRINT BUDGET
  SAVE BUDGET

period 455 step 30 
  SAVE HEAD
  PRINT BUDGET
  SAVE BUDGET

period 456 step 31 
  SAVE HEAD
  PRINT BUDGET
  SAVE BUDGET

period 457 step 31 
  SAVE HEAD
  PRINT BUDGET
  SAVE BUDGET

period 458 step 28 
  SAVE HEAD
  PRINT BUDGET
  SAVE BUDGET

period 459 step 31 
  SAVE HEAD
  PRINT BUDGET
  SAVE BUDGET

period 460 step 30 
  SAVE HEAD
  PRINT BUDGET
  SAVE BUDGET

period 461 step 31 
  SAVE HEAD
  PRINT BUDGET
  SAVE BUDGET

period 462 step 30 
  SAVE HEAD
  PRINT BUDGET
  SAVE BUDGET

period 463 step 31 
  SAVE HEAD
  PRINT BUDGET
  SAVE BUDGET

period 464 step 31 
  SAVE HEAD
  PRINT BUDGET
  SAVE BUDGET

period 465 step 30 
  SAVE HEAD
  PRINT BUDGET
  SAVE BUDGET

period 466 step 31 
  SAVE HEAD
  PRINT BUDGET
  SAVE BUDGET

period 467 step 30 
  SAVE HEAD
  PRINT BUDGET
  SAVE BUDGET

period 468 step 31 
  SAVE HEAD
  PRINT BUDGET
  SAVE BUDGET

period 469 step 31 
  SAVE HEAD
  PRINT BUDGET
  SAVE BUDGET

period 470 step 28 
  SAVE HEAD
  PRINT BUDGET
  SAVE BUDGET

period 471 step 31 
  SAVE HEAD
  PRINT BUDGET
  SAVE BUDGET

period 472 step 30 
  SAVE HEAD
  PRINT BUDGET
  SAVE BUDGET

period 473 step 31 
  SAVE HEAD
  PRINT BUDGET
  SAVE BUDGET

period 474 step 30 
  SAVE HEAD
  PRINT BUDGET
  SAVE BUDGET

period 475 step 31 
  SAVE HEAD
  PRINT BUDGET
  SAVE BUDGET

period 476 step 31 
  SAVE HEAD
  PRINT BUDGET
  SAVE BUDGET

period 477 step 30 
  SAVE HEAD
  PRINT BUDGET
  SAVE BUDGET

period 478 step 31 
  SAVE HEAD
  PRINT BUDGET
  SAVE BUDGET

period 479 step 30 
  SAVE HEAD
  PRINT BUDGET
  SAVE BUDGET

period 480 step 31 
  SAVE HEAD
  PRINT BUDGET
  SAVE BUDGET

period 481 step 31 
  SAVE HEAD
  PRINT BUDGET
  SAVE BUDGET

period 482 step 28 
  SAVE HEAD
  PRINT BUDGET
  SAVE BUDGET

period 483 step 31 
  SAVE HEAD
  PRINT BUDGET
  SAVE BUDGET

period 484 step 30 
  SAVE HEAD
  PRINT BUDGET
  SAVE BUDGET

period 485 step 31 
  SAVE HEAD
  PRINT BUDGET
  SAVE BUDGET

period 486 step 30 
  SAVE HEAD
  PRINT BUDGET
  SAVE BUDGET

period 487 step 31 
  SAVE HEAD
  PRINT BUDGET
  SAVE BUDGET

period 488 step 31 
  SAVE HEAD
  PRINT BUDGET
  SAVE BUDGET

period 489 step 30 
  SAVE HEAD
  PRINT BUDGET
  SAVE BUDGET

period 490 step 31 
  SAVE HEAD
  PRINT BUDGET
  SAVE BUDGET

period 491 step 30 
  SAVE HEAD
  PRINT BUDGET
  SAVE BUDGET

period 492 step 31 
  SAVE HEAD
  PRINT BUDGET
  SAVE BUDGET

period 493 step 31 
  SAVE HEAD
  PRINT BUDGET
  SAVE BUDGET

period 494 step 29 
  SAVE HEAD
  PRINT BUDGET
  SAVE BUDGET

period 495 step 31 
  SAVE HEAD
  PRINT BUDGET
  SAVE BUDGET

period 496 step 30 
  SAVE HEAD
  PRINT BUDGET
  SAVE BUDGET

period 497 step 31 
  SAVE HEAD
  PRINT BUDGET
  SAVE BUDGET

period 498 step 30 
  SAVE HEAD
  PRINT BUDGET
  SAVE BUDGET

period 499 step 31 
  SAVE HEAD
  PRINT BUDGET
  SAVE BUDGET

period 500 step 31 
  SAVE HEAD
  PRINT BUDGET
  SAVE BUDGET

period 501 step 30 
  SAVE HEAD
  PRINT BUDGET
  SAVE BUDGET

period 502 step 31 
  SAVE HEAD
  PRINT BUDGET
  SAVE BUDGET

period 503 step 30 
  SAVE HEAD
  PRINT BUDGET
  SAVE BUDGET

period 504 step 31 
  SAVE HEAD
  PRINT BUDGET
  SAVE BUDGET

period 505 step 31 
  SAVE HEAD
  PRINT BUDGET
  SAVE BUDGET

period 506 step 28 
  SAVE HEAD
  PRINT BUDGET
  SAVE BUDGET

period 507 step 31 
  SAVE HEAD
  PRINT BUDGET
  SAVE BUDGET

period 508 step 30 
  SAVE HEAD
  PRINT BUDGET
  SAVE BUDGET

period 509 step 31 
  SAVE HEAD
  PRINT BUDGET
  SAVE BUDGET

period 510 step 30 
  SAVE HEAD
  PRINT BUDGET
  SAVE BUDGET

period 511 step 31 
  SAVE HEAD
  PRINT BUDGET
  SAVE BUDGET

period 512 step 31 
  SAVE HEAD
  PRINT BUDGET
  SAVE BUDGET

period 513 step 30 
  SAVE HEAD
  PRINT BUDGET
  SAVE BUDGET

period 514 step 31 
  SAVE HEAD
  PRINT BUDGET
  SAVE BUDGET

period 515 step 30 
  SAVE HEAD
  PRINT BUDGET
  SAVE BUDGET

period 516 step 31 
  SAVE HEAD
  PRINT BUDGET
  SAVE BUDGET

period 517 step 31 
  SAVE HEAD
  PRINT BUDGET
  SAVE BUDGET

period 518 step 28 
  SAVE HEAD
  PRINT BUDGET
  SAVE BUDGET

period 519 step 31 
  SAVE HEAD
  PRINT BUDGET
  SAVE BUDGET

period 520 step 30 
  SAVE HEAD
  PRINT BUDGET
  SAVE BUDGET

period 521 step 31 
  SAVE HEAD
  PRINT BUDGET
  SAVE BUDGET

period 522 step 30 
  SAVE HEAD
  PRINT BUDGET
  SAVE BUDGET

period 523 step 31 
  SAVE HEAD
  PRINT BUDGET
  SAVE BUDGET

period 524 step 31 
  SAVE HEAD
  PRINT BUDGET
  SAVE BUDGET

period 525 step 30 
  SAVE HEAD
  PRINT BUDGET
  SAVE BUDGET

period 526 step 31 
  SAVE HEAD
  PRINT BUDGET
  SAVE BUDGET

period 527 step 30 
  SAVE HEAD
  PRINT BUDGET
  SAVE BUDGET

period 528 step 31 
  SAVE HEAD
  PRINT BUDGET
  SAVE BUDGET

period 529 step 31 
  SAVE HEAD
  PRINT BUDGET
  SAVE BUDGET

period 530 step 28 
  SAVE HEAD
  PRINT BUDGET
  SAVE BUDGET

period 531 step 31 
  SAVE HEAD
  PRINT BUDGET
  SAVE BUDGET

period 532 step 30 
  SAVE HEAD
  PRINT BUDGET
  SAVE BUDGET

period 533 step 31 
  SAVE HEAD
  PRINT BUDGET
  SAVE BUDGET

period 534 step 30 
  SAVE HEAD
  PRINT BUDGET
  SAVE BUDGET

period 535 step 31 
  SAVE HEAD
  PRINT BUDGET
  SAVE BUDGET

period 536 step 31 
  SAVE HEAD
  PRINT BUDGET
  SAVE BUDGET

period 537 step 30 
  SAVE HEAD
  PRINT BUDGET
  SAVE BUDGET

period 538 step 31 
  SAVE HEAD
  PRINT BUDGET
  SAVE BUDGET

period 539 step 30 
  SAVE HEAD
  PRINT BUDGET
  SAVE BUDGET

period 540 step 31 
  SAVE HEAD
  PRINT BUDGET
  SAVE BUDGET

period 541 step 31 
  SAVE HEAD
  PRINT BUDGET
  SAVE BUDGET

period 542 step 29 
  SAVE HEAD
  PRINT BUDGET
  SAVE BUDGET

period 543 step 31 
  SAVE HEAD
  PRINT BUDGET
  SAVE BUDGET

period 544 step 30 
  SAVE HEAD
  PRINT BUDGET
  SAVE BUDGET

period 545 step 31 
  SAVE HEAD
  PRINT BUDGET
  SAVE BUDGET

period 546 step 30 
  SAVE HEAD
  PRINT BUDGET
  SAVE BUDGET

period 547 step 31 
  SAVE HEAD
  PRINT BUDGET
  SAVE BUDGET

period 548 step 31 
  SAVE HEAD
  PRINT BUDGET
  SAVE BUDGET

period 549 step 30 
  SAVE HEAD
  PRINT BUDGET
  SAVE BUDGET

period 550 step 31 
  SAVE HEAD
  PRINT BUDGET
  SAVE BUDGET

period 551 step 30 
  SAVE HEAD
  PRINT BUDGET
  SAVE BUDGET

period 552 step 31 
  SAVE HEAD
  PRINT BUDGET
  SAVE BUDGET

period 553 step 31 
  SAVE HEAD
  PRINT BUDGET
  SAVE BUDGET

period 554 step 28 
  SAVE HEAD
  PRINT BUDGET
  SAVE BUDGET

period 555 step 31 
  SAVE HEAD
  PRINT BUDGET
  SAVE BUDGET

period 556 step 30 
  SAVE HEAD
  PRINT BUDGET
  SAVE BUDGET

period 557 step 31 
  SAVE HEAD
  PRINT BUDGET
  SAVE BUDGET

period 558 step 30 
  SAVE HEAD
  PRINT BUDGET
  SAVE BUDGET

period 559 step 31 
  SAVE HEAD
  PRINT BUDGET
  SAVE BUDGET

period 560 step 31 
  SAVE HEAD
  PRINT BUDGET
  SAVE BUDGET

period 561 step 30 
  SAVE HEAD
  PRINT BUDGET
  SAVE BUDGET

period 562 step 31 
  SAVE HEAD
  PRINT BUDGET
  SAVE BUDGET

period 563 step 30 
  SAVE HEAD
  PRINT BUDGET
  SAVE BUDGET

period 564 step 31 
  SAVE HEAD
  PRINT BUDGET
  SAVE BUDGET

period 565 step 31 
  SAVE HEAD
  PRINT BUDGET
  SAVE BUDGET

period 566 step 28 
  SAVE HEAD
  PRINT BUDGET
  SAVE BUDGET

period 567 step 31 
  SAVE HEAD
  PRINT BUDGET
  SAVE BUDGET

period 568 step 30 
  SAVE HEAD
  PRINT BUDGET
  SAVE BUDGET

period 569 step 31 
  SAVE HEAD
  PRINT BUDGET
  SAVE BUDGET

period 570 step 30 
  SAVE HEAD
  PRINT BUDGET
  SAVE BUDGET

period 571 step 31 
  SAVE HEAD
  PRINT BUDGET
  SAVE BUDGET

period 572 step 31 
  SAVE HEAD
  PRINT BUDGET
  SAVE BUDGET

period 573 step 30 
  SAVE HEAD
  PRINT BUDGET
  SAVE BUDGET

period 574 step 31 
  SAVE HEAD
  PRINT BUDGET
  SAVE BUDGET

period 575 step 30 
  SAVE HEAD
  PRINT BUDGET
  SAVE BUDGET

period 576 step 31 
  SAVE HEAD
  PRINT BUDGET
  SAVE BUDGET

period 577 step 31 
  SAVE HEAD
  PRINT BUDGET
  SAVE BUDGET

period 578 step 28 
  SAVE HEAD
  PRINT BUDGET
  SAVE BUDGET

period 579 step 31 
  SAVE HEAD
  PRINT BUDGET
  SAVE BUDGET

period 580 step 30 
  SAVE HEAD
  PRINT BUDGET
  SAVE BUDGET

period 581 step 31 
  SAVE HEAD
  PRINT BUDGET
  SAVE BUDGET

period 582 step 30 
  SAVE HEAD
  PRINT BUDGET
  SAVE BUDGET

period 583 step 31 
  SAVE HEAD
  PRINT BUDGET
  SAVE BUDGET

period 584 step 31 
  SAVE HEAD
  PRINT BUDGET
  SAVE BUDGET

period 585 step 30 
  SAVE HEAD
  PRINT BUDGET
  SAVE BUDGET

period 586 step 31 
  SAVE HEAD
  PRINT BUDGET
  SAVE BUDGET

period 587 step 30 
  SAVE HEAD
  PRINT BUDGET
  SAVE BUDGET

period 588 step 31 
  SAVE HEAD
  PRINT BUDGET
  SAVE BUDGET

period 589 step 31 
  SAVE HEAD
  PRINT BUDGET
  SAVE BUDGET

period 590 step 29 
  SAVE HEAD
  PRINT BUDGET
  SAVE BUDGET

period 591 step 31 
  SAVE HEAD
  PRINT BUDGET
  SAVE BUDGET

period 592 step 30 
  SAVE HEAD
  PRINT BUDGET
  SAVE BUDGET

period 593 step 31 
  SAVE HEAD
  PRINT BUDGET
  SAVE BUDGET

period 594 step 30 
  SAVE HEAD
  PRINT BUDGET
  SAVE BUDGET

period 595 step 31 
  SAVE HEAD
  PRINT BUDGET
  SAVE BUDGET

period 596 step 31 
  SAVE HEAD
  PRINT BUDGET
  SAVE BUDGET

period 597 step 30 
  SAVE HEAD
  PRINT BUDGET
  SAVE BUDGET

period 598 step 31 
  SAVE HEAD
  PRINT BUDGET
  SAVE BUDGET

period 599 step 30 
  SAVE HEAD
  PRINT BUDGET
  SAVE BUDGET

period 600 step 31 
  SAVE HEAD
  PRINT BUDGET
  SAVE BUDGET

period 601 step 31 
  SAVE HEAD
  PRINT BUDGET
  SAVE BUDGET

period 602 step 28 
  SAVE HEAD
  PRINT BUDGET
  SAVE BUDGET

period 603 step 31 
  SAVE HEAD
  PRINT BUDGET
  SAVE BUDGET

period 604 step 30 
  SAVE HEAD
  PRINT BUDGET
  SAVE BUDGET

period 605 step 31 
  SAVE HEAD
  PRINT BUDGET
  SAVE BUDGET

period 606 step 30 
  SAVE HEAD
  PRINT BUDGET
  SAVE BUDGET

period 607 step 31 
  SAVE HEAD
  PRINT BUDGET
  SAVE BUDGET

period 608 step 31 
  SAVE HEAD
  PRINT BUDGET
  SAVE BUDGET

period 609 step 30 
  SAVE HEAD
  PRINT BUDGET
  SAVE BUDGET

period 610 step 31 
  SAVE HEAD
  PRINT BUDGET
  SAVE BUDGET

period 611 step 30 
  SAVE HEAD
  PRINT BUDGET
  SAVE BUDGET

period 612 step 31 
  SAVE HEAD
  PRINT BUDGET
  SAVE BUDGET

period 613 step 31 
  SAVE HEAD
  PRINT BUDGET
  SAVE BUDGET

period 614 step 28 
  SAVE HEAD
  PRINT BUDGET
  SAVE BUDGET

period 615 step 31 
  SAVE HEAD
  PRINT BUDGET
  SAVE BUDGET

period 616 step 30 
  SAVE HEAD
  PRINT BUDGET
  SAVE BUDGET

period 617 step 31 
  SAVE HEAD
  PRINT BUDGET
  SAVE BUDGET

period 618 step 30 
  SAVE HEAD
  PRINT BUDGET
  SAVE BUDGET

period 619 step 31 
  SAVE HEAD
  PRINT BUDGET
  SAVE BUDGET

period 620 step 31 
  SAVE HEAD
  PRINT BUDGET
  SAVE BUDGET

period 621 step 30 
  SAVE HEAD
  PRINT BUDGET
  SAVE BUDGET

period 622 step 31 
  SAVE HEAD
  PRINT BUDGET
  SAVE BUDGET

period 623 step 30 
  SAVE HEAD
  PRINT BUDGET
  SAVE BUDGET

period 624 step 31 
  SAVE HEAD
  PRINT BUDGET
  SAVE BUDGET

period 625 step 31 
  SAVE HEAD
  PRINT BUDGET
  SAVE BUDGET

period 626 step 28 
  SAVE HEAD
  PRINT BUDGET
  SAVE BUDGET

period 627 step 31 
  SAVE HEAD
  PRINT BUDGET
  SAVE BUDGET

period 628 step 30 
  SAVE HEAD
  PRINT BUDGET
  SAVE BUDGET

period 629 step 31 
  SAVE HEAD
  PRINT BUDGET
  SAVE BUDGET

period 630 step 30 
  SAVE HEAD
  PRINT BUDGET
  SAVE BUDGET

period 631 step 31 
  SAVE HEAD
  PRINT BUDGET
  SAVE BUDGET

period 632 step 31 
  SAVE HEAD
  PRINT BUDGET
  SAVE BUDGET

period 633 step 30 
  SAVE HEAD
  PRINT BUDGET
  SAVE BUDGET

period 634 step 31 
  SAVE HEAD
  PRINT BUDGET
  SAVE BUDGET

period 635 step 30 
  SAVE HEAD
  PRINT BUDGET
  SAVE BUDGET

period 636 step 31 
  SAVE HEAD
  PRINT BUDGET
  SAVE BUDGET

period 637 step 31 
  SAVE HEAD
  PRINT BUDGET
  SAVE BUDGET

period 638 step 29 
  SAVE HEAD
  PRINT BUDGET
  SAVE BUDGET

period 639 step 31 
  SAVE HEAD
  PRINT BUDGET
  SAVE BUDGET

period 640 step 30 
  SAVE HEAD
  PRINT BUDGET
  SAVE BUDGET

period 641 step 31 
  SAVE HEAD
  PRINT BUDGET
  SAVE BUDGET

period 642 step 30 
  SAVE HEAD
  PRINT BUDGET
  SAVE BUDGET

period 643 step 31 
  SAVE HEAD
  PRINT BUDGET
  SAVE BUDGET

period 644 step 31 
  SAVE HEAD
  PRINT BUDGET
  SAVE BUDGET

period 645 step 30 
  SAVE HEAD
  PRINT BUDGET
  SAVE BUDGET

period 646 step 31 
  SAVE HEAD
  PRINT BUDGET
  SAVE BUDGET

period 647 step 30 
  SAVE HEAD
  PRINT BUDGET
  SAVE BUDGET

period 648 step 31 
  SAVE HEAD
  PRINT BUDGET
  SAVE BUDGET

period 649 step 31 
  SAVE HEAD
  PRINT BUDGET
  SAVE BUDGET

period 650 step 28 
  SAVE HEAD
  PRINT BUDGET
  SAVE BUDGET

period 651 step 31 
  SAVE HEAD
  PRINT BUDGET
  SAVE BUDGET

period 652 step 30 
  SAVE HEAD
  PRINT BUDGET
  SAVE BUDGET

period 653 step 31 
  SAVE HEAD
  PRINT BUDGET
  SAVE BUDGET

period 654 step 30 
  SAVE HEAD
  PRINT BUDGET
  SAVE BUDGET

period 655 step 31 
  SAVE HEAD
  PRINT BUDGET
  SAVE BUDGET

period 656 step 31 
  SAVE HEAD
  PRINT BUDGET
  SAVE BUDGET

period 657 step 30 
  SAVE HEAD
  PRINT BUDGET
  SAVE BUDGET

period 658 step 31 
  SAVE HEAD
  PRINT BUDGET
  SAVE BUDGET

period 659 step 30 
  SAVE HEAD
  PRINT BUDGET
  SAVE BUDGET

period 660 step 31 
  SAVE HEAD
  PRINT BUDGET
  SAVE BUDGET

period 661 step 31 
  SAVE HEAD
  PRINT BUDGET
  SAVE BUDGET

period 662 step 28 
  SAVE HEAD
  PRINT BUDGET
  SAVE BUDGET

period 663 step 31 
  SAVE HEAD
  PRINT BUDGET
  SAVE BUDGET

period 664 step 30 
  SAVE HEAD
  PRINT BUDGET
  SAVE BUDGET

period 665 step 31 
  SAVE HEAD
  PRINT BUDGET
  SAVE BUDGET

period 666 step 30 
  SAVE HEAD
  PRINT BUDGET
  SAVE BUDGET

period 667 step 31 
  SAVE HEAD
  PRINT BUDGET
  SAVE BUDGET

period 668 step 31 
  SAVE HEAD
  PRINT BUDGET
  SAVE BUDGET

period 669 step 30 
  SAVE HEAD
  PRINT BUDGET
  SAVE BUDGET

period 670 step 31 
  SAVE HEAD
  PRINT BUDGET
  SAVE BUDGET

period 671 step 30 
  SAVE HEAD
  PRINT BUDGET
  SAVE BUDGET

period 672 step 31 
  SAVE HEAD
  PRINT BUDGET
  SAVE BUDGET

period 673 step 31 
  SAVE HEAD
  PRINT BUDGET
  SAVE BUDGET

period 674 step 28 
  SAVE HEAD
  PRINT BUDGET
  SAVE BUDGET

period 675 step 31 
  SAVE HEAD
  PRINT BUDGET
  SAVE BUDGET

period 676 step 30 
  SAVE HEAD
  PRINT BUDGET
  SAVE BUDGET

period 677 step 31 
  SAVE HEAD
  PRINT BUDGET
  SAVE BUDGET

period 678 step 30 
  SAVE HEAD
  PRINT BUDGET
  SAVE BUDGET

period 679 step 31 
  SAVE HEAD
  PRINT BUDGET
  SAVE BUDGET

period 680 step 31 
  SAVE HEAD
  PRINT BUDGET
  SAVE BUDGET

period 681 step 30 
  SAVE HEAD
  PRINT BUDGET
  SAVE BUDGET

period 682 step 31 
  SAVE HEAD
  PRINT BUDGET
  SAVE BUDGET

period 683 step 30 
  SAVE HEAD
  PRINT BUDGET
  SAVE BUDGET

period 684 step 31 
  SAVE HEAD
  PRINT BUDGET
  SAVE BUDGET

period 685 step 31 
  SAVE HEAD
  PRINT BUDGET
  SAVE BUDGET

period 686 step 29 
  SAVE HEAD
  PRINT BUDGET
  SAVE BUDGET

period 687 step 31 
  SAVE HEAD
  PRINT BUDGET
  SAVE BUDGET

period 688 step 30 
  SAVE HEAD
  PRINT BUDGET
  SAVE BUDGET

period 689 step 31 
  SAVE HEAD
  PRINT BUDGET
  SAVE BUDGET

period 690 step 30 
  SAVE HEAD
  PRINT BUDGET
  SAVE BUDGET

period 691 step 31 
  SAVE HEAD
  PRINT BUDGET
  SAVE BUDGET

period 692 step 31 
  SAVE HEAD
  PRINT BUDGET
  SAVE BUDGET

period 693 step 30 
  SAVE HEAD
  PRINT BUDGET
  SAVE BUDGET

period 694 step 31 
  SAVE HEAD
  PRINT BUDGET
  SAVE BUDGET

period 695 step 30 
  SAVE HEAD
  PRINT BUDGET
  SAVE BUDGET

period 696 step 31 
  SAVE HEAD
  PRINT BUDGET
  SAVE BUDGET

period 697 step 31 
  SAVE HEAD
  PRINT BUDGET
  SAVE BUDGET

period 698 step 28 
  SAVE HEAD
  PRINT BUDGET
  SAVE BUDGET

period 699 step 31 
  SAVE HEAD
  PRINT BUDGET
  SAVE BUDGET

period 700 step 30 
  SAVE HEAD
  PRINT BUDGET
  SAVE BUDGET

period 701 step 31 
  SAVE HEAD
  PRINT BUDGET
  SAVE BUDGET

period 702 step 30 
  SAVE HEAD
  PRINT BUDGET
  SAVE BUDGET

period 703 step 31 
  SAVE HEAD
  PRINT BUDGET
  SAVE BUDGET

period 704 step 31 
  SAVE HEAD
  PRINT BUDGET
  SAVE BUDGET

period 705 step 30 
  SAVE HEAD
  PRINT BUDGET
  SAVE BUDGET

period 706 step 31 
  SAVE HEAD
  PRINT BUDGET
  SAVE BUDGET

period 707 step 30 
  SAVE HEAD
  PRINT BUDGET
  SAVE BUDGET

period 708 step 31 
  SAVE HEAD
  PRINT BUDGET
  SAVE BUDGET

period 709 step 31 
  SAVE HEAD
  PRINT BUDGET
  SAVE BUDGET

period 710 step 28 
  SAVE HEAD
  PRINT BUDGET
  SAVE BUDGET

period 711 step 31 
  SAVE HEAD
  PRINT BUDGET
  SAVE BUDGET

period 712 step 30 
  SAVE HEAD
  PRINT BUDGET
  SAVE BUDGET

period 713 step 31 
  SAVE HEAD
  PRINT BUDGET
  SAVE BUDGET

period 714 step 30 
  SAVE HEAD
  PRINT BUDGET
  SAVE BUDGET

period 715 step 31 
  SAVE HEAD
  PRINT BUDGET
  SAVE BUDGET

period 716 step 31 
  SAVE HEAD
  PRINT BUDGET
  SAVE BUDGET

period 717 step 30 
  SAVE HEAD
  PRINT BUDGET
  SAVE BUDGET

period 718 step 31 
  SAVE HEAD
  PRINT BUDGET
  SAVE BUDGET

period 719 step 30 
  SAVE HEAD
  PRINT BUDGET
  SAVE BUDGET

period 720 step 31 
  SAVE HEAD
  PRINT BUDGET
  SAVE BUDGET

period 721 step 31 
  SAVE HEAD
  PRINT BUDGET
  SAVE BUDGET

period 722 step 28 
  SAVE HEAD
  PRINT BUDGET
  SAVE BUDGET

period 723 step 31 
  SAVE HEAD
  PRINT BUDGET
  SAVE BUDGET

period 724 step 30 
  SAVE HEAD
  PRINT BUDGET
  SAVE BUDGET

period 725 step 31 
  SAVE HEAD
  PRINT BUDGET
  SAVE BUDGET

period 726 step 30 
  SAVE HEAD
  PRINT BUDGET
  SAVE BUDGET

period 727 step 31 
  SAVE HEAD
  PRINT BUDGET
  SAVE BUDGET

period 728 step 31 
  SAVE HEAD
  PRINT BUDGET
  SAVE BUDGET

period 729 step 30 
  SAVE HEAD
  PRINT BUDGET
  SAVE BUDGET

period 730 step 31 
  SAVE HEAD
  PRINT BUDGET
  SAVE BUDGET

period 731 step 30 
  SAVE HEAD
  PRINT BUDGET
  SAVE BUDGET

period 732 step 31 
  SAVE HEAD
  PRINT BUDGET
  SAVE BUDGET

period 733 step 31 
  SAVE HEAD
  PRINT BUDGET
  SAVE BUDGET

period 734 step 29 
  SAVE HEAD
  PRINT BUDGET
  SAVE BUDGET

period 735 step 31 
  SAVE HEAD
  PRINT BUDGET
  SAVE BUDGET

period 736 step 30 
  SAVE HEAD
  PRINT BUDGET
  SAVE BUDGET

period 737 step 31 
  SAVE HEAD
  PRINT BUDGET
  SAVE BUDGET

period 738 step 30 
  SAVE HEAD
  PRINT BUDGET
  SAVE BUDGET

period 739 step 31 
  SAVE HEAD
  PRINT BUDGET
  SAVE BUDGET

period 740 step 31 
  SAVE HEAD
  PRINT BUDGET
  SAVE BUDGET

period 741 step 30 
  SAVE HEAD
  PRINT BUDGET
  SAVE BUDGET

period 742 step 31 
  SAVE HEAD
  PRINT BUDGET
  SAVE BUDGET

period 743 step 30 
  SAVE HEAD
  PRINT BUDGET
  SAVE BUDGET

period 744 step 31 
  SAVE HEAD
  PRINT BUDGET
  SAVE BUDGET

period 745 step 31 
  SAVE HEAD
  PRINT BUDGET
  SAVE BUDGET

period 746 step 28 
  SAVE HEAD
  PRINT BUDGET
  SAVE BUDGET

period 747 step 31 
  SAVE HEAD
  PRINT BUDGET
  SAVE BUDGET

period 748 step 30 
  SAVE HEAD
  PRINT BUDGET
  SAVE BUDGET

period 749 step 31 
  SAVE HEAD
  PRINT BUDGET
  SAVE BUDGET

period 750 step 30 
  SAVE HEAD
  PRINT BUDGET
  SAVE BUDGET

period 751 step 31 
  SAVE HEAD
  PRINT BUDGET
  SAVE BUDGET

period 752 step 31 
  SAVE HEAD
  PRINT BUDGET
  SAVE BUDGET

period 753 step 30 
  SAVE HEAD
  PRINT BUDGET
  SAVE BUDGET

period 754 step 31 
  SAVE HEAD
  PRINT BUDGET
  SAVE BUDGET

period 755 step 30 
  SAVE HEAD
  PRINT BUDGET
  SAVE BUDGET

period 756 step 31 
  SAVE HEAD
  PRINT BUDGET
  SAVE BUDGET

period 757 step 31 
  SAVE HEAD
  PRINT BUDGET
  SAVE BUDGET

period 758 step 28 
  SAVE HEAD
  PRINT BUDGET
  SAVE BUDGET

period 759 step 31 
  SAVE HEAD
  PRINT BUDGET
  SAVE BUDGET

period 760 step 30 
  SAVE HEAD
  PRINT BUDGET
  SAVE BUDGET

period 761 step 31 
  SAVE HEAD
  PRINT BUDGET
  SAVE BUDGET

period 762 step 30 
  SAVE HEAD
  PRINT BUDGET
  SAVE BUDGET

period 763 step 31 
  SAVE HEAD
  PRINT BUDGET
  SAVE BUDGET

period 764 step 31 
  SAVE HEAD
  PRINT BUDGET
  SAVE BUDGET

period 765 step 30 
  SAVE HEAD
  PRINT BUDGET
  SAVE BUDGET

period 766 step 31 
  SAVE HEAD
  PRINT BUDGET
  SAVE BUDGET

period 767 step 30 
  SAVE HEAD
  PRINT BUDGET
  SAVE BUDGET

period 768 step 31 
  SAVE HEAD
  PRINT BUDGET
  SAVE BUDGET

period 769 step 31 
  SAVE HEAD
  PRINT BUDGET
  SAVE BUDGET

period 770 step 28 
  SAVE HEAD
  PRINT BUDGET
  SAVE BUDGET

period 771 step 31 
  SAVE HEAD
  PRINT BUDGET
  SAVE BUDGET

period 772 step 30 
  SAVE HEAD
  PRINT BUDGET
  SAVE BUDGET

period 773 step 31 
  SAVE HEAD
  PRINT BUDGET
  SAVE BUDGET

period 774 step 30 
  SAVE HEAD
  PRINT BUDGET
  SAVE BUDGET

period 775 step 31 
  SAVE HEAD
  PRINT BUDGET
  SAVE BUDGET

period 776 step 31 
  SAVE HEAD
  PRINT BUDGET
  SAVE BUDGET

period 777 step 30 
  SAVE HEAD
  PRINT BUDGET
  SAVE BUDGET

period 778 step 31 
  SAVE HEAD
  PRINT BUDGET
  SAVE BUDGET

period 779 step 30 
  SAVE HEAD
  PRINT BUDGET
  SAVE BUDGET

period 780 step 31 
  SAVE HEAD
  PRINT BUDGET
  SAVE BUDGET

period 781 step 31 
  SAVE HEAD
  PRINT BUDGET
  SAVE BUDGET

period 782 step 29 
  SAVE HEAD
  PRINT BUDGET
  SAVE BUDGET

period 783 step 31 
  SAVE HEAD
  PRINT BUDGET
  SAVE BUDGET

period 784 step 30 
  SAVE HEAD
  PRINT BUDGET
  SAVE BUDGET

period 785 step 31 
  SAVE HEAD
  PRINT BUDGET
  SAVE BUDGET

period 786 step 30 
  SAVE HEAD
  PRINT BUDGET
  SAVE BUDGET

period 787 step 31 
  SAVE HEAD
  PRINT BUDGET
  SAVE BUDGET

period 788 step 31 
  SAVE HEAD
  PRINT BUDGET
  SAVE BUDGET

period 789 step 30 
  SAVE HEAD
  PRINT BUDGET
  SAVE BUDGET

period 790 step 31 
  SAVE HEAD
  PRINT BUDGET
  SAVE BUDGET

period 791 step 30 
  SAVE HEAD
  PRINT BUDGET
  SAVE BUDGET

period 792 step 31 
  SAVE HEAD
  PRINT BUDGET
  SAVE BUDGET
PERIOD   793  STEP 31
    SAVE BUDGET
    PRINT BUDGET
    SAVE HEAD
PERIOD   794  STEP 28
    SAVE BUDGET
    PRINT BUDGET
    SAVE HEAD
PERIOD   795  STEP 31
    SAVE BUDGET
    PRINT BUDGET
    SAVE HEAD
PERIOD   796  STEP 30
    SAVE BUDGET
    PRINT BUDGET
    SAVE HEAD
PERIOD   797  STEP 31
    SAVE BUDGET
    PRINT BUDGET
    SAVE HEAD
PERIOD   798  STEP 30
    SAVE BUDGET
    PRINT BUDGET
    SAVE HEAD
PERIOD   799  STEP 31
    SAVE BUDGET
    PRINT BUDGET
    SAVE HEAD
PERIOD   800  STEP 31
    SAVE BUDGET
    PRINT BUDGET
    SAVE HEAD
PERIOD   801  STEP 30
    SAVE BUDGET
    PRINT BUDGET
    SAVE HEAD
PERIOD   802  STEP 31
    SAVE BUDGET
    PRINT BUDGET
    SAVE HEAD
PERIOD   803  STEP 30
    SAVE BUDGET
    PRINT BUDGET
    SAVE HEAD
PERIOD   804  STEP 31
    SAVE BUDGET
    PRINT BUDGET
    SAVE HEAD
PERIOD   805  STEP 31
    SAVE BUDGET
    PRINT BUDGET
    SAVE HEAD
PERIOD   806  STEP 28
    SAVE BUDGET
    PRINT BUDGET
    SAVE HEAD
PERIOD   807  STEP 31
    SAVE BUDGET
    PRINT BUDGET
    SAVE HEAD
PERIOD   808  STEP 30
    SAVE BUDGET
    PRINT BUDGET
    SAVE HEAD
PERIOD   809  STEP 31
    SAVE BUDGET
    PRINT BUDGET
    SAVE HEAD
PERIOD   810  STEP 30
    SAVE BUDGET
    PRINT BUDGET
    SAVE HEAD
PERIOD   811  STEP 31
    SAVE BUDGET
    PRINT BUDGET
    SAVE HEAD
PERIOD   812  STEP 31
    SAVE BUDGET
    PRINT BUDGET
    SAVE HEAD
PERIOD   813  STEP 30
    SAVE BUDGET
    PRINT BUDGET
    SAVE HEAD
PERIOD   814  STEP 31
    SAVE BUDGET
    PRINT BUDGET
    SAVE HEAD
PERIOD   815  STEP 30
    SAVE BUDGET
    PRINT BUDGET
    SAVE HEAD
PERIOD   816  STEP 31
    SAVE BUDGET
    PRINT BUDGET
    SAVE HEAD
PERIOD   817  STEP 31
    SAVE BUDGET
    PRINT BUDGET
    SAVE HEAD
PERIOD   818  STEP 28
    SAVE BUDGET
    PRINT BUDGET
    SAVE HEAD
PERIOD   819  STEP 31
    SAVE BUDGET
    PRINT BUDGET
    SAVE HEAD
PERIOD   820  STEP 30
    SAVE BUDGET
    PRINT BUDGET
    SAVE HEAD
PERIOD   821  STEP 31
    SAVE BUDGET
    PRINT BUDGET
    SAVE HEAD
PERIOD   822  STEP 30
    SAVE BUDGET
    PRINT BUDGET
    SAVE HEAD
PERIOD   823  STEP 31
    SAVE BUDGET
    PRINT BUDGET
    SAVE HEAD
PERIOD   824  STEP 31
    SAVE BUDGET
    PRINT BUDGET
    SAVE HEAD
PERIOD   825  STEP 30
    SAVE BUDGET
    PRINT BUDGET
    SAVE HEAD
PERIOD   826  STEP 31
    SAVE BUDGET
    PRINT BUDGET
    SAVE HEAD
PERIOD   827  STEP 30
    SAVE BUDGET
    PRINT BUDGET
    SAVE HEAD
PERIOD   828  STEP 31
    SAVE BUDGET
    PRINT BUDGET
    SAVE HEAD
PERIOD   829  STEP 31
    SAVE BUDGET
    PRINT BUDGET
    SAVE HEAD
PERIOD   830  STEP 29
    SAVE BUDGET
    PRINT BUDGET
    SAVE HEAD
PERIOD   831  STEP 31
    SAVE BUDGET
    PRINT BUDGET
    SAVE HEAD
PERIOD   832  STEP 30
    SAVE BUDGET
    PRINT BUDGET
    SAVE HEAD
PERIOD   833  STEP 31
    SAVE BUDGET
    PRINT BUDGET
    SAVE HEAD
PERIOD   834  STEP 30
    SAVE BUDGET
    PRINT BUDGET
    SAVE HEAD
PERIOD   835  STEP 31
    SAVE BUDGET
    PRINT BUDGET
    SAVE HEAD
PERIOD   836  STEP 31
    SAVE BUDGET
    PRINT BUDGET
    SAVE HEAD
PERIOD   837  STEP 30
    SAVE BUDGET
    PRINT BUDGET
    SAVE HEAD
PERIOD   838  STEP 31
    SAVE BUDGET
    PRINT BUDGET
    SAVE HEAD
PERIOD   839  STEP 30
    SAVE BUDGET
    PRINT BUDGET
    SAVE HEAD
PERIOD   840  STEP 31
    SAVE BUDGET
    PRINT BUDGET
    SAVE HEAD
PERIOD   841  STEP 31
    SAVE BUDGET
    PRINT BUDGET
    SAVE HEAD
PERIOD   842  STEP 28
    SAVE BUDGET
    PRINT BUDGET
    SAVE HEAD
PERIOD   843  STEP 31
    SAVE BUDGET
    PRINT BUDGET
    SAVE HEAD
PERIOD   844  STEP 30
    SAVE BUDGET
    PRINT BUDGET
    SAVE HEAD
PERIOD   845  STEP 31
    SAVE BUDGET
    PRINT BUDGET
    SAVE HEAD
PERIOD   846  STEP 30
    SAVE BUDGET
    PRINT BUDGET
    SAVE HEAD
PERIOD   847  STEP 31
    SAVE BUDGET
    PRINT BUDGET
    SAVE HEAD
PERIOD   848  STEP 31
    SAVE BUDGET
    PRINT BUDGET
    SAVE HEAD
PERIOD   849  STEP 30
    SAVE BUDGET
    PRINT BUDGET
    SAVE HEAD
PERIOD   850  STEP 31
    SAVE BUDGET
    PRINT BUDGET
    SAVE HEAD
PERIOD   851  STEP 30
    SAVE BUDGET
    PRINT BUDGET
    SAVE HEAD
PERIOD   852  STEP 31
    SAVE BUDGET
    PRINT BUDGET
    SAVE HEAD
PERIOD   853  STEP 31
    SAVE BUDGET
    PRINT BUDGET
    SAVE HEAD
PERIOD   854  STEP 28
    SAVE BUDGET
    PRINT BUDGET
    SAVE HEAD
PERIOD   855  STEP 31
    SAVE BUDGET
    PRINT BUDGET
    SAVE HEAD
PERIOD   856  STEP 30
    SAVE BUDGET
    PRINT BUDGET
    SAVE HEAD
PERIOD   857  STEP 31
    SAVE BUDGET
    PRINT BUDGET
    SAVE HEAD
PERIOD   858  STEP 30
    SAVE BUDGET
    PRINT BUDGET
    SAVE HEAD
PERIOD   859  STEP 31
    SAVE BUDGET
    PRINT BUDGET
    SAVE HEAD
PERIOD   860  STEP 31
    SAVE BUDGET
    PRINT BUDGET
    SAVE HEAD
PERIOD   861  STEP 30
    SAVE BUDGET
    PRINT BUDGET
    SAVE HEAD
PERIOD   862  STEP 31
    SAVE BUDGET
    PRINT BUDGET
    SAVE HEAD
PERIOD   863  STEP 30
    SAVE BUDGET
    PRINT BUDGET
    SAVE HEAD
PERIOD   864  STEP 31
    SAVE BUDGET
    PRINT BUDGET
    SAVE HEAD
PERIOD   865  STEP 31
    SAVE BUDGET
    PRINT BUDGET
    SAVE HEAD
PERIOD   866  STEP 28
    SAVE BUDGET
    PRINT BUDGET
    SAVE HEAD
PERIOD   867  STEP 31
    SAVE BUDGET
    PRINT BUDGET
    SAVE HEAD
PERIOD   868  STEP 30
    SAVE BUDGET
    PRINT BUDGET
    SAVE HEAD
PERIOD   869  STEP 31
    SAVE BUDGET
    PRINT BUDGET
    SAVE HEAD
PERIOD   870  STEP 30
    SAVE BUDGET
    PRINT BUDGET
    SAVE HEAD
PERIOD   871  STEP 31
    SAVE BUDGET
    PRINT BUDGET
    SAVE HEAD
PERIOD   872  STEP 31
    SAVE BUDGET
    PRINT BUDGET
    SAVE HEAD
PERIOD   873  STEP 30
    SAVE BUDGET
    PRINT BUDGET
    SAVE HEAD
PERIOD   874  STEP 31
    SAVE BUDGET
    PRINT BUDGET
    SAVE HEAD
PERIOD   875  STEP 30
    SAVE BUDGET
    PRINT BUDGET
    SAVE HEAD
PERIOD   876  STEP 31
    SAVE BUDGET
    PRINT BUDGET
    SAVE HEAD
PERIOD   877  STEP 31
    SAVE BUDGET
    PRINT BUDGET
    SAVE HEAD
PERIOD   878  STEP 29
    SAVE BUDGET
    PRINT BUDGET
    SAVE HEAD
PERIOD   879  STEP 31
    SAVE BUDGET
    PRINT BUDGET
    SAVE HEAD